data_str_m1_o2_o5_pcu_sym.21
_audit_creation_date              2020-01-03
_audit_creation_method            'Materials Studio'
_symmetry_space_group_name_H-M    'P1'
_symmetry_Int_Tables_number       1
_symmetry_cell_setting            triclinic
loop_
_symmetry_equiv_pos_as_xyz
  x,y,z
_cell_length_a                    24.4313
_cell_length_b                    24.4313
_cell_length_c                    22.4630
_cell_angle_alpha                 90.0000
_cell_angle_beta                  90.0000
_cell_angle_gamma                 90.0000
loop_
_atom_site_label
_atom_site_type_symbol
_atom_site_fract_x
_atom_site_fract_y
_atom_site_fract_z
_atom_site_U_iso_or_equiv
_atom_site_adp_type
_atom_site_occupancy
C1     C     0.22867   0.27133   0.25000   0.00000  Uiso   1.00
C2     C     0.22867   0.72867   0.25000   0.00000  Uiso   1.00
C3     C     0.20022   0.63549   0.22734   0.00000  Uiso   1.00
C4     C     0.32115   0.15697   0.69791   0.00000  Uiso   1.00
C5     C     0.67885   0.84303   0.30209   0.00000  Uiso   1.00
C6     C     0.20022   0.63549   0.77266   0.00000  Uiso   1.00
C7     C     0.79978   0.36451   0.22734   0.00000  Uiso   1.00
C8     C     0.32116   0.84303   0.30209   0.00000  Uiso   1.00
C9     C     0.67884   0.15697   0.69791   0.00000  Uiso   1.00
C10    C     0.20022   0.36451   0.22734   0.00000  Uiso   1.00
C11    C     0.79978   0.63549   0.77266   0.00000  Uiso   1.00
C12    C     0.67885   0.15697   0.30209   0.00000  Uiso   1.00
C13    C     0.72872   0.77128   0.75000   0.00000  Uiso   1.00
C14    C     0.32116   0.84303   0.69791   0.00000  Uiso   1.00
C15    C     0.79978   0.63549   0.22734   0.00000  Uiso   1.00
C16    C     0.20022   0.36451   0.77266   0.00000  Uiso   1.00
C17    C     0.14745   0.35255   0.25000   0.00000  Uiso   1.00
C18    C     0.85255   0.64745   0.75000   0.00000  Uiso   1.00
C19    C     0.35252   0.85252   0.25000   0.00000  Uiso   1.00
C20    C     0.64748   0.14748   0.75000   0.00000  Uiso   1.00
C21    C     0.85255   0.64745   0.25000   0.00000  Uiso   1.00
C22    C     0.14745   0.35255   0.75000   0.00000  Uiso   1.00
C23    C     0.64748   0.14748   0.25000   0.00000  Uiso   1.00
C24    C     0.27128   0.22872   0.25000   0.00000  Uiso   1.00
C25    C     0.35252   0.85252   0.75000   0.00000  Uiso   1.00
C26    C     0.85255   0.35255   0.75000   0.00000  Uiso   1.00
C27    C     0.14745   0.64745   0.25000   0.00000  Uiso   1.00
C28    C     0.64748   0.85252   0.75000   0.00000  Uiso   1.00
C29    C     0.35252   0.14748   0.25000   0.00000  Uiso   1.00
C30    C     0.14745   0.64745   0.75000   0.00000  Uiso   1.00
C31    C     0.85255   0.35255   0.25000   0.00000  Uiso   1.00
C32    C     0.35252   0.14748   0.75000   0.00000  Uiso   1.00
C33    C     0.64748   0.85252   0.25000   0.00000  Uiso   1.00
C34    C     0.08092   0.28634   0.29818   0.00000  Uiso   1.00
C35    C     0.22867   0.72867   0.75000   0.00000  Uiso   1.00
C36    C     0.91908   0.71366   0.70182   0.00000  Uiso   1.00
C37    C     0.37626   0.82885   0.14296   0.00000  Uiso   1.00
C38    C     0.62375   0.17115   0.85704   0.00000  Uiso   1.00
C39    C     0.91908   0.71366   0.29818   0.00000  Uiso   1.00
C40    C     0.08092   0.28634   0.70182   0.00000  Uiso   1.00
C41    C     0.62375   0.17116   0.14296   0.00000  Uiso   1.00
C42    C     0.37626   0.82885   0.85704   0.00000  Uiso   1.00
C43    C     0.91908   0.28634   0.70181   0.00000  Uiso   1.00
C44    C     0.08092   0.71366   0.29818   0.00000  Uiso   1.00
C45    C     0.62374   0.82884   0.85704   0.00000  Uiso   1.00
C46    C     0.77133   0.27133   0.25000   0.00000  Uiso   1.00
C47    C     0.37626   0.17116   0.14296   0.00000  Uiso   1.00
C48    C     0.08092   0.71366   0.70181   0.00000  Uiso   1.00
C49    C     0.91908   0.28634   0.29818   0.00000  Uiso   1.00
C50    C     0.37626   0.17116   0.85704   0.00000  Uiso   1.00
C51    C     0.62375   0.82885   0.14296   0.00000  Uiso   1.00
C52    C     0.67116   0.87626   0.64296   0.00000  Uiso   1.00
C53    C     0.32884   0.12374   0.35704   0.00000  Uiso   1.00
C54    C     0.78634   0.41908   0.79819   0.00000  Uiso   1.00
C55    C     0.21366   0.58092   0.20181   0.00000  Uiso   1.00
C56    C     0.32884   0.12374   0.64296   0.00000  Uiso   1.00
C57    C     0.27128   0.22872   0.75000   0.00000  Uiso   1.00
C58    C     0.67116   0.87626   0.35704   0.00000  Uiso   1.00
C59    C     0.21366   0.58092   0.79819   0.00000  Uiso   1.00
C60    C     0.78634   0.41908   0.20181   0.00000  Uiso   1.00
C61    C     0.32885   0.87626   0.35704   0.00000  Uiso   1.00
C62    C     0.67115   0.12375   0.64295   0.00000  Uiso   1.00
C63    C     0.21366   0.41908   0.20182   0.00000  Uiso   1.00
C64    C     0.78634   0.58092   0.79818   0.00000  Uiso   1.00
C65    C     0.67116   0.12375   0.35704   0.00000  Uiso   1.00
C66    C     0.32885   0.87625   0.64296   0.00000  Uiso   1.00
C67    C     0.78634   0.58092   0.20181   0.00000  Uiso   1.00
C68    C     0.72872   0.77128   0.25000   0.00000  Uiso   1.00
C69    C     0.21366   0.41908   0.79818   0.00000  Uiso   1.00
C70    C     0.00000   0.50000   0.47333   0.00000  Uiso   1.00
C71    C     0.00000   0.50000   0.52667   0.00000  Uiso   1.00
C72    C     0.50000   0.00000   0.47333   0.00000  Uiso   1.00
C73    C     0.77133   0.72867   0.75000   0.00000  Uiso   1.00
C74    C     0.50000   0.00000   0.52667   0.00000  Uiso   1.00
C75    C     0.50000   0.00000   0.97333   0.00000  Uiso   1.00
C76    C     0.50000   0.00000   0.02667   0.00000  Uiso   1.00
C77    C     0.00000   0.50000   0.97333   0.00000  Uiso   1.00
C78    C     0.00000   0.50000   0.02667   0.00000  Uiso   1.00
C79    C     0.00000   0.50000   0.09000   0.00000  Uiso   1.00
C80    C     0.00000   0.50000   0.91000   0.00000  Uiso   1.00
C81    C     0.50000   0.00000   0.09000   0.00000  Uiso   1.00
C82    C     0.50000   0.00000   0.91000   0.00000  Uiso   1.00
C83    C     0.50000   0.00000   0.59000   0.00000  Uiso   1.00
C84    C     0.27128   0.77128   0.25000   0.00000  Uiso   1.00
C85    C     0.50000   0.00000   0.41000   0.00000  Uiso   1.00
C86    C     0.00000   0.50000   0.59000   0.00000  Uiso   1.00
C87    C     0.00000   0.50000   0.41000   0.00000  Uiso   1.00
C88    C     0.10507   0.60507   0.25000   0.00000  Uiso   1.00
C89    C     0.89493   0.39493   0.75000   0.00000  Uiso   1.00
C90    C     0.60509   0.89492   0.25000   0.00000  Uiso   1.00
C91    C     0.39492   0.10508   0.75000   0.00000  Uiso   1.00
C92    C     0.89493   0.39493   0.25000   0.00000  Uiso   1.00
C93    C     0.10507   0.60507   0.75000   0.00000  Uiso   1.00
C94    C     0.39492   0.10509   0.25000   0.00000  Uiso   1.00
C95    C     0.72872   0.22872   0.75000   0.00000  Uiso   1.00
C96    C     0.60509   0.89492   0.75000   0.00000  Uiso   1.00
C97    C     0.89493   0.60507   0.75000   0.00000  Uiso   1.00
C98    C     0.10507   0.39493   0.25000   0.00000  Uiso   1.00
C99    C     0.39492   0.89492   0.75000   0.00000  Uiso   1.00
C100   C     0.60508   0.10509   0.25000   0.00000  Uiso   1.00
C101   C     0.10507   0.39493   0.75000   0.00000  Uiso   1.00
C102   C     0.89493   0.60507   0.25000   0.00000  Uiso   1.00
C103   C     0.60509   0.10508   0.75000   0.00000  Uiso   1.00
C104   C     0.39492   0.89492   0.25000   0.00000  Uiso   1.00
C105   C     0.17647   0.25969   0.27219   0.00000  Uiso   1.00
C106   C     0.77133   0.72867   0.25000   0.00000  Uiso   1.00
C107   C     0.82353   0.74031   0.72781   0.00000  Uiso   1.00
C108   C     0.30221   0.78090   0.19869   0.00000  Uiso   1.00
C109   C     0.69779   0.21910   0.80131   0.00000  Uiso   1.00
C110   C     0.82353   0.74031   0.27219   0.00000  Uiso   1.00
C111   C     0.17647   0.25969   0.72781   0.00000  Uiso   1.00
C112   C     0.69779   0.21910   0.19869   0.00000  Uiso   1.00
C113   C     0.30221   0.78090   0.80131   0.00000  Uiso   1.00
C114   C     0.82353   0.25969   0.72781   0.00000  Uiso   1.00
C115   C     0.17647   0.74031   0.27219   0.00000  Uiso   1.00
C116   C     0.69779   0.78090   0.80131   0.00000  Uiso   1.00
C117   C     0.22867   0.27133   0.75000   0.00000  Uiso   1.00
C118   C     0.30221   0.21910   0.19869   0.00000  Uiso   1.00
C119   C     0.17647   0.74031   0.72781   0.00000  Uiso   1.00
C120   C     0.82353   0.25969   0.27219   0.00000  Uiso   1.00
C121   C     0.30221   0.21910   0.80131   0.00000  Uiso   1.00
C122   C     0.69779   0.78090   0.19869   0.00000  Uiso   1.00
C123   C     0.71910   0.80221   0.69869   0.00000  Uiso   1.00
C124   C     0.28090   0.19779   0.30131   0.00000  Uiso   1.00
C125   C     0.75969   0.32353   0.77219   0.00000  Uiso   1.00
C126   C     0.24031   0.67647   0.22781   0.00000  Uiso   1.00
C127   C     0.28090   0.19779   0.69869   0.00000  Uiso   1.00
C128   C     0.72872   0.22872   0.25000   0.00000  Uiso   1.00
C129   C     0.71910   0.80221   0.30131   0.00000  Uiso   1.00
C130   C     0.24031   0.67647   0.77219   0.00000  Uiso   1.00
C131   C     0.75969   0.32353   0.22781   0.00000  Uiso   1.00
C132   C     0.28090   0.80221   0.30131   0.00000  Uiso   1.00
C133   C     0.71910   0.19779   0.69869   0.00000  Uiso   1.00
C134   C     0.24031   0.32353   0.22781   0.00000  Uiso   1.00
C135   C     0.75969   0.67647   0.77219   0.00000  Uiso   1.00
C136   C     0.71910   0.19779   0.30131   0.00000  Uiso   1.00
C137   C     0.28090   0.80221   0.69869   0.00000  Uiso   1.00
C138   C     0.75969   0.67647   0.22781   0.00000  Uiso   1.00
C139   C     0.27128   0.77128   0.75000   0.00000  Uiso   1.00
C140   C     0.24031   0.32353   0.77219   0.00000  Uiso   1.00
C141   C     0.13549   0.29978   0.27266   0.00000  Uiso   1.00
C142   C     0.86451   0.70022   0.72734   0.00000  Uiso   1.00
C143   C     0.34303   0.82116   0.19791   0.00000  Uiso   1.00
C144   C     0.65697   0.17884   0.80209   0.00000  Uiso   1.00
C145   C     0.86451   0.70022   0.27266   0.00000  Uiso   1.00
C146   C     0.13549   0.29978   0.72734   0.00000  Uiso   1.00
C147   C     0.65697   0.17885   0.19791   0.00000  Uiso   1.00
C148   C     0.34303   0.82116   0.80209   0.00000  Uiso   1.00
C149   C     0.86451   0.29978   0.72734   0.00000  Uiso   1.00
C150   C     0.77133   0.27133   0.75000   0.00000  Uiso   1.00
C151   C     0.13549   0.70022   0.27266   0.00000  Uiso   1.00
C152   C     0.65697   0.82115   0.80209   0.00000  Uiso   1.00
C153   C     0.34303   0.17885   0.19791   0.00000  Uiso   1.00
C154   C     0.13549   0.70022   0.72734   0.00000  Uiso   1.00
C155   C     0.86451   0.29978   0.27266   0.00000  Uiso   1.00
C156   C     0.34303   0.17885   0.80209   0.00000  Uiso   1.00
C157   C     0.65697   0.82116   0.19791   0.00000  Uiso   1.00
C158   C     0.67885   0.84303   0.69791   0.00000  Uiso   1.00
C159   C     0.32116   0.15697   0.30209   0.00000  Uiso   1.00
C160   C     0.79978   0.36451   0.77266   0.00000  Uiso   1.00
H1     H     0.16782   0.21901   0.28897   0.00000  Uiso   1.00
H2     H     0.16782   0.78099   0.28897   0.00000  Uiso   1.00
H3     H     0.70580   0.75684   0.84090   0.00000  Uiso   1.00
H4     H     0.29420   0.24316   0.15910   0.00000  Uiso   1.00
H5     H     0.16782   0.78099   0.71103   0.00000  Uiso   1.00
H6     H     0.83219   0.21901   0.28897   0.00000  Uiso   1.00
H7     H     0.29420   0.24316   0.84090   0.00000  Uiso   1.00
H8     H     0.70581   0.75685   0.15910   0.00000  Uiso   1.00
H9     H     0.74316   0.79420   0.65910   0.00000  Uiso   1.00
H10    H     0.25685   0.20581   0.34090   0.00000  Uiso   1.00
H11    H     0.71901   0.33218   0.78897   0.00000  Uiso   1.00
H12    H     0.83219   0.78099   0.71103   0.00000  Uiso   1.00
H13    H     0.28099   0.66782   0.21103   0.00000  Uiso   1.00
H14    H     0.25684   0.20580   0.65910   0.00000  Uiso   1.00
H15    H     0.74315   0.79419   0.34090   0.00000  Uiso   1.00
H16    H     0.28099   0.66782   0.78897   0.00000  Uiso   1.00
H17    H     0.71901   0.33219   0.21103   0.00000  Uiso   1.00
H18    H     0.25685   0.79419   0.34090   0.00000  Uiso   1.00
H19    H     0.74315   0.20581   0.65909   0.00000  Uiso   1.00
H20    H     0.28099   0.33219   0.21103   0.00000  Uiso   1.00
H21    H     0.71901   0.66781   0.78897   0.00000  Uiso   1.00
H22    H     0.74315   0.20581   0.34090   0.00000  Uiso   1.00
H23    H     0.29419   0.75685   0.15910   0.00000  Uiso   1.00
H24    H     0.25685   0.79419   0.65909   0.00000  Uiso   1.00
H25    H     0.71901   0.66782   0.21103   0.00000  Uiso   1.00
H26    H     0.28099   0.33219   0.78897   0.00000  Uiso   1.00
H27    H     0.04991   0.31769   0.30317   0.00000  Uiso   1.00
H28    H     0.95010   0.68231   0.69683   0.00000  Uiso   1.00
H29    H     0.41093   0.85652   0.14241   0.00000  Uiso   1.00
H30    H     0.58907   0.14348   0.85759   0.00000  Uiso   1.00
H31    H     0.95009   0.68231   0.30317   0.00000  Uiso   1.00
H32    H     0.04991   0.31769   0.69683   0.00000  Uiso   1.00
H33    H     0.58907   0.14349   0.14241   0.00000  Uiso   1.00
H34    H     0.70581   0.24315   0.84090   0.00000  Uiso   1.00
H35    H     0.41093   0.85652   0.85759   0.00000  Uiso   1.00
H36    H     0.95009   0.31769   0.69683   0.00000  Uiso   1.00
H37    H     0.04991   0.68231   0.30317   0.00000  Uiso   1.00
H38    H     0.58906   0.85651   0.85759   0.00000  Uiso   1.00
H39    H     0.41094   0.14349   0.14241   0.00000  Uiso   1.00
H40    H     0.04991   0.68231   0.69683   0.00000  Uiso   1.00
H41    H     0.95009   0.31769   0.30317   0.00000  Uiso   1.00
H42    H     0.41094   0.14349   0.85759   0.00000  Uiso   1.00
H43    H     0.58907   0.85652   0.14241   0.00000  Uiso   1.00
H44    H     0.64349   0.91094   0.64241   0.00000  Uiso   1.00
H45    H     0.83219   0.78099   0.28897   0.00000  Uiso   1.00
H46    H     0.35651   0.08907   0.35759   0.00000  Uiso   1.00
H47    H     0.81769   0.45009   0.80317   0.00000  Uiso   1.00
H48    H     0.18231   0.54991   0.19683   0.00000  Uiso   1.00
H49    H     0.35651   0.08906   0.64241   0.00000  Uiso   1.00
H50    H     0.64349   0.91093   0.35759   0.00000  Uiso   1.00
H51    H     0.18231   0.54991   0.80317   0.00000  Uiso   1.00
H52    H     0.81769   0.45009   0.19683   0.00000  Uiso   1.00
H53    H     0.35652   0.91093   0.35759   0.00000  Uiso   1.00
H54    H     0.64348   0.08907   0.64241   0.00000  Uiso   1.00
H55    H     0.18231   0.45010   0.19683   0.00000  Uiso   1.00
H56    H     0.16782   0.21901   0.71103   0.00000  Uiso   1.00
H57    H     0.81769   0.54991   0.80317   0.00000  Uiso   1.00
H58    H     0.64349   0.08907   0.35759   0.00000  Uiso   1.00
H59    H     0.35652   0.91093   0.64241   0.00000  Uiso   1.00
H60    H     0.81769   0.54991   0.19683   0.00000  Uiso   1.00
H61    H     0.18231   0.45010   0.80317   0.00000  Uiso   1.00
H62    H     0.70581   0.24315   0.15910   0.00000  Uiso   1.00
H63    H     0.29419   0.75685   0.84090   0.00000  Uiso   1.00
H64    H     0.83218   0.21901   0.71103   0.00000  Uiso   1.00
O1     O     0.00000   0.50000   0.25000   0.00000  Uiso   1.00
O2     O     0.00000   0.45454   0.88202   0.00000  Uiso   1.00
O3     O     0.54546   0.00000   0.11798   0.00000  Uiso   1.00
O4     O     0.45454   0.00000   0.88202   0.00000  Uiso   1.00
O5     O     0.50000   0.95454   0.61798   0.00000  Uiso   1.00
O6     O     0.50000   0.04546   0.38202   0.00000  Uiso   1.00
O7     O     0.95454   0.50000   0.61798   0.00000  Uiso   1.00
O8     O     0.04546   0.50000   0.38202   0.00000  Uiso   1.00
O9     O     0.50000   0.04546   0.61798   0.00000  Uiso   1.00
O10    O     0.50000   0.95454   0.38202   0.00000  Uiso   1.00
O11    O     0.04546   0.50000   0.61798   0.00000  Uiso   1.00
O12    O     0.00000   0.50000   0.75000   0.00000  Uiso   1.00
O13    O     0.95454   0.50000   0.38202   0.00000  Uiso   1.00
O14    O     0.06399   0.60947   0.21539   0.00000  Uiso   1.00
O15    O     0.93601   0.39053   0.78461   0.00000  Uiso   1.00
O16    O     0.60947   0.93601   0.21539   0.00000  Uiso   1.00
O17    O     0.39053   0.06399   0.78461   0.00000  Uiso   1.00
O18    O     0.93601   0.39053   0.21539   0.00000  Uiso   1.00
O19    O     0.06399   0.60947   0.78461   0.00000  Uiso   1.00
O20    O     0.39053   0.06399   0.21539   0.00000  Uiso   1.00
O21    O     0.60947   0.93601   0.78461   0.00000  Uiso   1.00
O22    O     0.93601   0.60947   0.78461   0.00000  Uiso   1.00
O23    O     0.50000   0.00000   0.25000   0.00000  Uiso   1.00
O24    O     0.06399   0.39053   0.21539   0.00000  Uiso   1.00
O25    O     0.39053   0.93601   0.78461   0.00000  Uiso   1.00
O26    O     0.60947   0.06399   0.21539   0.00000  Uiso   1.00
O27    O     0.06399   0.39053   0.78461   0.00000  Uiso   1.00
O28    O     0.93601   0.60947   0.21539   0.00000  Uiso   1.00
O29    O     0.60947   0.06399   0.78461   0.00000  Uiso   1.00
O30    O     0.39053   0.93601   0.21539   0.00000  Uiso   1.00
O31    O     0.56399   0.10947   0.71539   0.00000  Uiso   1.00
O32    O     0.43601   0.89053   0.28461   0.00000  Uiso   1.00
O33    O     0.10947   0.43601   0.71539   0.00000  Uiso   1.00
O34    O     0.50000   0.00000   0.75000   0.00000  Uiso   1.00
O35    O     0.89053   0.56399   0.28461   0.00000  Uiso   1.00
O36    O     0.43601   0.89053   0.71539   0.00000  Uiso   1.00
O37    O     0.56399   0.10947   0.28461   0.00000  Uiso   1.00
O38    O     0.89053   0.56399   0.71539   0.00000  Uiso   1.00
O39    O     0.10947   0.43601   0.28461   0.00000  Uiso   1.00
O40    O     0.43601   0.10947   0.28461   0.00000  Uiso   1.00
O41    O     0.56399   0.89053   0.71539   0.00000  Uiso   1.00
O42    O     0.89053   0.43601   0.28461   0.00000  Uiso   1.00
O43    O     0.10947   0.56399   0.71539   0.00000  Uiso   1.00
O44    O     0.56399   0.89053   0.28461   0.00000  Uiso   1.00
O45    O     0.00000   0.45454   0.11798   0.00000  Uiso   1.00
O46    O     0.43601   0.10947   0.71539   0.00000  Uiso   1.00
O47    O     0.10947   0.56399   0.28461   0.00000  Uiso   1.00
O48    O     0.89053   0.43601   0.71539   0.00000  Uiso   1.00
O49    O     0.06993   0.23989   0.31438   0.00000  Uiso   1.00
O50    O     0.93007   0.76011   0.68562   0.00000  Uiso   1.00
O51    O     0.36546   0.80395   0.09729   0.00000  Uiso   1.00
O52    O     0.63454   0.19605   0.90271   0.00000  Uiso   1.00
O53    O     0.93007   0.76010   0.31438   0.00000  Uiso   1.00
O54    O     0.06993   0.23990   0.68562   0.00000  Uiso   1.00
O55    O     0.63454   0.19605   0.09729   0.00000  Uiso   1.00
O56    O     0.00000   0.54546   0.88202   0.00000  Uiso   1.00
O57    O     0.36546   0.80395   0.90271   0.00000  Uiso   1.00
O58    O     0.93006   0.23990   0.68561   0.00000  Uiso   1.00
O59    O     0.06994   0.76010   0.31438   0.00000  Uiso   1.00
O60    O     0.63454   0.80394   0.90271   0.00000  Uiso   1.00
O61    O     0.36546   0.19606   0.09729   0.00000  Uiso   1.00
O62    O     0.06994   0.76010   0.68562   0.00000  Uiso   1.00
O63    O     0.93007   0.23990   0.31438   0.00000  Uiso   1.00
O64    O     0.36546   0.19606   0.90271   0.00000  Uiso   1.00
O65    O     0.63454   0.80395   0.09729   0.00000  Uiso   1.00
O66    O     0.69606   0.86546   0.59729   0.00000  Uiso   1.00
O67    O     0.45454   0.00000   0.11798   0.00000  Uiso   1.00
O68    O     0.30395   0.13454   0.40271   0.00000  Uiso   1.00
O69    O     0.73990   0.43006   0.81439   0.00000  Uiso   1.00
O70    O     0.26010   0.56994   0.18562   0.00000  Uiso   1.00
O71    O     0.30394   0.13454   0.59729   0.00000  Uiso   1.00
O72    O     0.69605   0.86546   0.40271   0.00000  Uiso   1.00
O73    O     0.26010   0.56994   0.81438   0.00000  Uiso   1.00
O74    O     0.73990   0.43007   0.18562   0.00000  Uiso   1.00
O75    O     0.30395   0.86546   0.40271   0.00000  Uiso   1.00
O76    O     0.69605   0.13454   0.59729   0.00000  Uiso   1.00
O77    O     0.26011   0.43007   0.18562   0.00000  Uiso   1.00
O78    O     0.54546   0.00000   0.88202   0.00000  Uiso   1.00
O79    O     0.73990   0.56993   0.81438   0.00000  Uiso   1.00
O80    O     0.69605   0.13454   0.40271   0.00000  Uiso   1.00
O81    O     0.30395   0.86546   0.59729   0.00000  Uiso   1.00
O82    O     0.73990   0.56994   0.18562   0.00000  Uiso   1.00
O83    O     0.26010   0.43007   0.81438   0.00000  Uiso   1.00
O84    O     0.00000   0.54546   0.11798   0.00000  Uiso   1.00
Zn1    Zn    0.06497   0.50000   0.29947   0.00000  Uiso   1.00
Zn2    Zn    0.43503   0.00000   0.20053   0.00000  Uiso   1.00
Zn3    Zn    0.00000   0.43503   0.79947   0.00000  Uiso   1.00
Zn4    Zn    0.00000   0.56497   0.20053   0.00000  Uiso   1.00
Zn5    Zn    0.43503   0.00000   0.79947   0.00000  Uiso   1.00
Zn6    Zn    0.56497   0.00000   0.20053   0.00000  Uiso   1.00
Zn7    Zn    0.00000   0.56497   0.79947   0.00000  Uiso   1.00
Zn8    Zn    0.00000   0.43503   0.20053   0.00000  Uiso   1.00
Zn9    Zn    0.93503   0.50000   0.70053   0.00000  Uiso   1.00
Zn10   Zn    0.50000   0.93503   0.29947   0.00000  Uiso   1.00
Zn11   Zn    0.50000   0.06497   0.70053   0.00000  Uiso   1.00
Zn12   Zn    0.93503   0.50000   0.29947   0.00000  Uiso   1.00
Zn13   Zn    0.06497   0.50000   0.70053   0.00000  Uiso   1.00
Zn14   Zn    0.50000   0.06497   0.29947   0.00000  Uiso   1.00
Zn15   Zn    0.50000   0.93503   0.70053   0.00000  Uiso   1.00
Zn16   Zn    0.56497   0.00000   0.79947   0.00000  Uiso   1.00
loop_
_geom_bond_atom_site_label_1
_geom_bond_atom_site_label_2
_geom_bond_distance
_geom_bond_site_symmetry_2
_ccdc_geom_bond_type
C1     C24     1.472   .     S
C1     C105    1.398   .     A
C1     C134    1.398   .     A
C2     C84     1.472   .     S
C2     C115    1.398   .     A
C2     C126    1.398   .     A
C3     C55     1.488   .     S
C3     C27     1.417   .     A
C3     C126    1.401   .     A
C4     C56     1.489   .     S
C4     C32     1.418   .     A
C4     C127    1.401   .     A
C5     C58     1.489   .     S
C5     C33     1.418   .     A
C5     C129    1.401   .     A
C6     C30     1.417   .     A
C6     C59     1.488   .     S
C6     C130    1.401   .     A
C7     C131    1.401   .     A
C7     C60     1.488   .     S
C7     C31     1.417   .     A
C8     C19     1.418   .     A
C8     C132    1.401   .     A
C8     C61     1.489   .     S
C9     C133    1.401   .     A
C9     C20     1.418   .     A
C9     C62     1.489   .     S
C10    C63     1.488   .     S
C10    C17     1.417   .     A
C10    C134    1.401   .     A
C11    C18     1.417   .     A
C11    C135    1.401   .     A
C11    C64     1.488   .     S
C12    C23     1.418   .     A
C12    C136    1.401   .     A
C12    C65     1.489   .     S
C13    C73     1.472   .     S
C13    C123    1.398   .     A
C13    C116    1.398   .     A
C14    C25     1.418   .     A
C14    C137    1.401   .     A
C14    C66     1.489   .     S
C15    C67     1.488   .     S
C15    C138    1.401   .     A
C15    C21     1.417   .     A
C16    C140    1.401   .     A
C16    C22     1.417   .     A
C16    C69     1.488   .     S
C17    C98     1.464   .     S
C17    C141    1.417   .     A
C18    C97     1.464   .     S
C18    C142    1.417   .     A
C19    C104    1.465   .     S
C19    C143    1.418   .     A
C20    C144    1.418   .     A
C20    C103    1.465   .     S
C21    C102    1.464   .     S
C21    C145    1.417   .     A
C22    C146    1.417   .     A
C22    C101    1.464   .     S
C23    C100    1.465   .     S
C23    C147    1.418   .     A
C24    C124    1.398   .     A
C24    C118    1.398   .     A
C25    C99     1.465   .     S
C25    C148    1.418   .     A
C26    C160    1.417   .     A
C26    C149    1.417   .     A
C26    C89     1.464   .     S
C27    C151    1.417   .     A
C27    C88     1.464   .     S
C28    C158    1.418   .     A
C28    C96     1.465   .     S
C28    C152    1.418   .     A
C29    C94     1.465   .     S
C29    C159    1.418   .     A
C29    C153    1.418   .     A
C30    C154    1.417   .     A
C30    C93     1.464   .     S
C31    C92     1.464   .     S
C31    C155    1.417   .     A
C32    C156    1.418   .     A
C32    C91     1.465   .     S
C33    C157    1.418   .     A
C33    C90     1.465   .     S
C34    O49     1.221   .     D
C34    H27     1.083   .     S
C34    C141    1.488   .     S
C35    C139    1.472   .     S
C35    C130    1.398   .     A
C35    C119    1.398   .     A
C36    C142    1.488   .     S
C36    O50     1.221   .     D
C36    H28     1.083   .     S
C37    C143    1.489   .     S
C37    H29     1.084   .     S
C37    O51     1.221   .     D
C38    H30     1.084   .     S
C38    C144    1.489   .     S
C38    O52     1.221   .     D
C39    H31     1.083   .     S
C39    C145    1.488   .     S
C39    O53     1.221   .     D
C40    H32     1.083   .     S
C40    C146    1.488   .     S
C40    O54     1.221   .     D
C41    H33     1.084   .     S
C41    O55     1.221   .     D
C41    C147    1.489   .     S
C42    H35     1.084   .     S
C42    O57     1.221   .     D
C42    C148    1.489   .     S
C43    C149    1.488   .     S
C43    H36     1.083   .     S
C43    O58     1.221   .     D
C44    O59     1.221   .     D
C44    H37     1.083   .     S
C44    C151    1.488   .     S
C45    H38     1.084   .     S
C45    O60     1.221   .     D
C45    C152    1.489   .     S
C46    C120    1.398   .     A
C46    C128    1.472   .     S
C46    C131    1.398   .     A
C47    C153    1.489   .     S
C47    H39     1.084   .     S
C47    O61     1.221   .     D
C48    C154    1.488   .     S
C48    H40     1.083   .     S
C48    O62     1.221   .     D
C49    C155    1.488   .     S
C49    H41     1.083   .     S
C49    O63     1.221   .     D
C50    H42     1.084   .     S
C50    O64     1.221   .     D
C50    C156    1.489   .     S
C51    C157    1.489   .     S
C51    O65     1.221   .     D
C51    H43     1.084   .     S
C52    C158    1.489   .     S
C52    H44     1.084   .     S
C52    O66     1.221   .     D
C53    C159    1.489   .     S
C53    H46     1.084   .     S
C53    O68     1.221   .     D
C54    C160    1.488   .     S
C54    O69     1.221   .     D
C54    H47     1.083   .     S
C55    H48     1.083   .     S
C55    O70     1.221   .     D
C56    H49     1.084   .     S
C56    O71     1.221   .     D
C57    C127    1.398   .     A
C57    C117    1.472   .     S
C57    C121    1.398   .     A
C58    H50     1.084   .     S
C58    O72     1.221   .     D
C59    H51     1.083   .     S
C59    O73     1.221   .     D
C60    H52     1.083   .     S
C60    O74     1.221   .     D
C61    H53     1.084   .     S
C61    O75     1.221   .     D
C62    H54     1.084   .     S
C62    O76     1.221   .     D
C63    H55     1.083   .     S
C63    O77     1.221   .     D
C64    O79     1.221   .     D
C64    H57     1.083   .     S
C65    O80     1.221   .     D
C65    H58     1.084   .     S
C66    H59     1.084   .     S
C66    O81     1.221   .     D
C67    H60     1.083   .     S
C67    O82     1.221   .     D
C68    C122    1.398   .     A
C68    C106    1.472   .     S
C68    C129    1.398   .     A
C69    H61     1.083   .     S
C69    O83     1.221   .     D
C70    C87     1.422   .     S
C70    C71     1.198   .     S
C71    C86     1.422   .     S
C72    C74     1.198   .     S
C72    C85     1.422   .     S
C73    C135    1.398   .     A
C73    C107    1.398   .     A
C74    C83     1.422   .     S
C75    C82     1.422   .     S
C75    C76     1.198   1_556 S
C76    C81     1.422   .     S
C76    C75     1.198   1_554 S
C77    C80     1.422   .     S
C77    C78     1.198   1_556 S
C78    C79     1.422   .     S
C78    C77     1.198   1_554 S
C79    O45     1.276   .     A
C79    O84     1.276   .     A
C80    O2      1.276   .     S
C80    O56     1.276   .     S
C81    O67     1.276   .     A
C81    O3      1.276   .     A
C82    O4      1.276   .     S
C82    O78     1.276   .     S
C83    O9      1.276   .     A
C83    O5      1.276   1_545 S
C84    C132    1.398   .     A
C84    C108    1.398   .     A
C85    O6      1.276   .     A
C85    O10     1.276   1_545 S
C86    O7      1.276   1_455 A
C86    O11     1.276   .     S
C87    O8      1.276   .     A
C87    O13     1.276   1_455 S
C88    O47     1.274   .     A
C88    O14     1.274   .     A
C89    O48     1.274   .     A
C89    O15     1.274   .     A
C90    O44     1.274   .     A
C90    O16     1.274   .     A
C91    O17     1.274   .     A
C91    O46     1.274   .     A
C92    O42     1.274   .     A
C92    O18     1.274   .     A
C93    O19     1.274   .     A
C93    O43     1.274   .     A
C94    O40     1.274   .     A
C94    O20     1.274   .     A
C95    C133    1.398   .     A
C95    C109    1.398   .     A
C95    C150    1.472   .     S
C96    O21     1.274   .     A
C96    O41     1.274   .     A
C97    O22     1.274   .     A
C97    O38     1.274   .     A
C98    O24     1.274   .     A
C98    O39     1.274   .     A
C99    O25     1.274   .     A
C99    O36     1.274   .     A
C100   O37     1.274   .     A
C100   O26     1.274   .     A
C101   O33     1.274   .     A
C101   O27     1.274   .     A
C102   O28     1.274   .     A
C102   O35     1.274   .     A
C103   O31     1.274   .     A
C103   O29     1.274   .     A
C104   O30     1.274   .     A
C104   O32     1.274   .     A
C105   H1      1.084   .     S
C105   C141    1.401   .     A
C106   C138    1.398   .     A
C106   C110    1.398   .     A
C107   H12     1.084   .     S
C107   C142    1.401   .     A
C108   H23     1.084   .     S
C108   C143    1.401   .     A
C109   C144    1.401   .     A
C109   H34     1.084   .     S
C110   C145    1.401   .     A
C110   H45     1.084   .     S
C111   C146    1.401   .     A
C111   C117    1.398   .     A
C111   H56     1.084   .     S
C112   C147    1.401   .     A
C112   C128    1.398   .     A
C112   H62     1.084   .     S
C113   C148    1.401   .     A
C113   H63     1.084   .     S
C113   C139    1.398   .     A
C114   C150    1.398   .     A
C114   C149    1.401   .     A
C114   H64     1.084   .     S
C115   C151    1.401   .     A
C115   H2      1.084   .     S
C116   H3      1.084   .     S
C116   C152    1.401   .     A
C117   C140    1.398   .     A
C118   H4      1.084   .     S
C118   C153    1.401   .     A
C119   H5      1.084   .     S
C119   C154    1.401   .     A
C120   H6      1.084   .     S
C120   C155    1.401   .     A
C121   C156    1.401   .     A
C121   H7      1.084   .     S
C122   H8      1.084   .     S
C122   C157    1.401   .     A
C123   H9      1.084   .     S
C123   C158    1.401   .     A
C124   C159    1.401   .     A
C124   H10     1.084   .     S
C125   H11     1.084   .     S
C125   C160    1.401   .     A
C125   C150    1.398   .     A
C126   H13     1.084   .     S
C127   H14     1.084   .     S
C128   C136    1.398   .     A
C129   H15     1.084   .     S
C130   H16     1.084   .     S
C131   H17     1.084   .     S
C132   H18     1.084   .     S
C133   H19     1.084   .     S
C134   H20     1.084   .     S
C135   H21     1.084   .     S
C136   H22     1.084   .     S
C137   H24     1.084   .     S
C137   C139    1.398   .     A
C138   H25     1.084   .     S
C140   H26     1.084   .     S
O1     Zn4     1.938   .     S
O1     Zn8     1.938   .     S
O1     Zn1     1.938   .     S
O1     Zn12    1.938   1_455 S
O2     Zn3     1.915   .     S
O3     Zn6     1.915   .     S
O4     Zn5     1.915   .     S
O5     Zn15    1.915   .     S
O5     C83     1.276   1_565 S
O6     Zn14    1.915   .     S
O7     C86     1.276   1_655 A
O7     Zn9     1.915   .     S
O8     Zn1     1.915   .     S
O9     Zn11    1.915   .     S
O10    Zn10    1.915   .     S
O10    C85     1.276   1_565 S
O11    Zn13    1.915   .     S
O12    Zn3     1.938   .     S
O12    Zn7     1.938   .     S
O12    Zn13    1.938   .     S
O12    Zn9     1.938   1_455 S
O13    Zn12    1.915   .     S
O13    C87     1.276   1_655 S
O14    Zn4     1.933   .     S
O15    Zn3     1.933   1_655 S
O16    Zn6     1.933   1_565 S
O17    Zn5     1.933   .     S
O18    Zn8     1.933   1_655 S
O19    Zn7     1.933   .     S
O20    Zn2     1.933   .     S
O21    Zn16    1.933   1_565 S
O22    Zn7     1.933   1_655 S
O23    Zn10    1.938   1_545 S
O23    Zn2     1.938   .     S
O23    Zn6     1.938   .     S
O23    Zn14    1.938   .     S
O24    Zn8     1.933   .     S
O25    Zn5     1.933   1_565 S
O26    Zn6     1.933   .     S
O27    Zn3     1.933   .     S
O28    Zn4     1.933   1_655 S
O29    Zn16    1.933   .     S
O30    Zn2     1.933   1_565 S
O31    Zn11    1.933   .     S
O32    Zn10    1.933   .     S
O33    Zn13    1.933   .     S
O34    Zn15    1.938   1_545 S
O34    Zn16    1.938   .     S
O34    Zn5     1.938   .     S
O34    Zn11    1.938   .     S
O35    Zn12    1.933   .     S
O36    Zn15    1.933   .     S
O37    Zn14    1.933   .     S
O38    Zn9     1.933   .     S
O39    Zn1     1.933   .     S
O40    Zn14    1.933   .     S
O41    Zn15    1.933   .     S
O42    Zn12    1.933   .     S
O43    Zn13    1.933   .     S
O44    Zn10    1.933   .     S
O45    Zn8     1.915   .     S
O46    Zn11    1.933   .     S
O47    Zn1     1.933   .     S
O48    Zn9     1.933   .     S
O56    Zn7     1.915   .     S
O67    Zn2     1.915   .     S
O78    Zn16    1.915   .     S
O84    Zn4     1.915   .     S
Zn2    O30     1.933   1_545 S
Zn3    O15     1.933   1_455 S
Zn4    O28     1.933   1_455 S
Zn5    O25     1.933   1_545 S
Zn6    O16     1.933   1_545 S
Zn7    O22     1.933   1_455 S
Zn8    O18     1.933   1_455 S
Zn9    O12     1.938   1_655 S
Zn10   O23     1.938   1_565 S
Zn12   O1      1.938   1_655 S
Zn15   O34     1.938   1_565 S
Zn16   O21     1.933   1_545 S
