data_str_m1_o2_o5_pcu_sym.27
_audit_creation_date              2020-01-03
_audit_creation_method            'Materials Studio'
_symmetry_space_group_name_H-M    'P1'
_symmetry_Int_Tables_number       1
_symmetry_cell_setting            triclinic
loop_
_symmetry_equiv_pos_as_xyz
  x,y,z
_cell_length_a                    24.4151
_cell_length_b                    24.4151
_cell_length_c                    22.4783
_cell_angle_alpha                 90.0012
_cell_angle_beta                  89.9987
_cell_angle_gamma                 89.9996
loop_
_atom_site_label
_atom_site_type_symbol
_atom_site_fract_x
_atom_site_fract_y
_atom_site_fract_z
_atom_site_U_iso_or_equiv
_atom_site_adp_type
_atom_site_occupancy
C1     C     0.22870   0.27127   0.25002   0.00000  Uiso   1.00
C2     C     0.22867   0.72866   0.25000   0.00000  Uiso   1.00
C3     C     0.15424   0.68157   0.30066   0.00000  Uiso   1.00
C4     C     0.31832   0.15413   0.69942   0.00000  Uiso   1.00
C5     C     0.68081   0.84495   0.30112   0.00000  Uiso   1.00
C6     C     0.15482   0.68102   0.69899   0.00000  Uiso   1.00
C7     C     0.84517   0.31898   0.30102   0.00000  Uiso   1.00
C8     C     0.36583   0.79824   0.23238   0.00000  Uiso   1.00
C9     C     0.63412   0.20184   0.76730   0.00000  Uiso   1.00
C10    C     0.20152   0.36561   0.23144   0.00000  Uiso   1.00
C11    C     0.79821   0.63417   0.76746   0.00000  Uiso   1.00
C12    C     0.63430   0.20162   0.23180   0.00000  Uiso   1.00
C13    C     0.72868   0.77136   0.74998   0.00000  Uiso   1.00
C14    C     0.36569   0.79838   0.76824   0.00000  Uiso   1.00
C15    C     0.79843   0.63434   0.23151   0.00000  Uiso   1.00
C16    C     0.20180   0.36587   0.76750   0.00000  Uiso   1.00
C17    C     0.14743   0.35255   0.25001   0.00000  Uiso   1.00
C18    C     0.85255   0.64747   0.74999   0.00000  Uiso   1.00
C19    C     0.35255   0.85255   0.25000   0.00000  Uiso   1.00
C20    C     0.64746   0.14746   0.75000   0.00000  Uiso   1.00
C21    C     0.85254   0.64744   0.24999   0.00000  Uiso   1.00
C22    C     0.14747   0.35255   0.75001   0.00000  Uiso   1.00
C23    C     0.64745   0.14745   0.25000   0.00000  Uiso   1.00
C24    C     0.27130   0.22867   0.25002   0.00000  Uiso   1.00
C25    C     0.35255   0.85255   0.75000   0.00000  Uiso   1.00
C26    C     0.85260   0.35261   0.75001   0.00000  Uiso   1.00
C27    C     0.14741   0.64740   0.25000   0.00000  Uiso   1.00
C28    C     0.64741   0.85261   0.74999   0.00000  Uiso   1.00
C29    C     0.35258   0.14741   0.25001   0.00000  Uiso   1.00
C30    C     0.14741   0.64741   0.75000   0.00000  Uiso   1.00
C31    C     0.85258   0.35258   0.25000   0.00000  Uiso   1.00
C32    C     0.35261   0.14741   0.75001   0.00000  Uiso   1.00
C33    C     0.64742   0.85257   0.24999   0.00000  Uiso   1.00
C34    C     0.07905   0.28218   0.29053   0.00000  Uiso   1.00
C35    C     0.22868   0.72868   0.75000   0.00000  Uiso   1.00
C36    C     0.92144   0.71835   0.71163   0.00000  Uiso   1.00
C37    C     0.28171   0.92136   0.28864   0.00000  Uiso   1.00
C38    C     0.71844   0.07853   0.71198   0.00000  Uiso   1.00
C39    C     0.92096   0.71787   0.29030   0.00000  Uiso   1.00
C40    C     0.07861   0.28165   0.71165   0.00000  Uiso   1.00
C41    C     0.71801   0.07889   0.28975   0.00000  Uiso   1.00
C42    C     0.28202   0.92108   0.71014   0.00000  Uiso   1.00
C43    C     0.82182   0.38136   0.85459   0.00000  Uiso   1.00
C44    C     0.17790   0.61893   0.14524   0.00000  Uiso   1.00
C45    C     0.61870   0.82187   0.85459   0.00000  Uiso   1.00
C46    C     0.77132   0.27132   0.25000   0.00000  Uiso   1.00
C47    C     0.37951   0.17637   0.14432   0.00000  Uiso   1.00
C48    C     0.17673   0.62011   0.85546   0.00000  Uiso   1.00
C49    C     0.82327   0.37988   0.14452   0.00000  Uiso   1.00
C50    C     0.38132   0.17812   0.85462   0.00000  Uiso   1.00
C51    C     0.62052   0.82368   0.14428   0.00000  Uiso   1.00
C52    C     0.67813   0.88133   0.64539   0.00000  Uiso   1.00
C53    C     0.32363   0.12047   0.35570   0.00000  Uiso   1.00
C54    C     0.88135   0.32183   0.64542   0.00000  Uiso   1.00
C55    C     0.11894   0.67788   0.35475   0.00000  Uiso   1.00
C56    C     0.32188   0.11872   0.64541   0.00000  Uiso   1.00
C57    C     0.27136   0.22868   0.75002   0.00000  Uiso   1.00
C58    C     0.67632   0.87945   0.35571   0.00000  Uiso   1.00
C59    C     0.12011   0.67674   0.64454   0.00000  Uiso   1.00
C60    C     0.87988   0.32327   0.35548   0.00000  Uiso   1.00
C61    C     0.42137   0.78172   0.21136   0.00000  Uiso   1.00
C62    C     0.57851   0.21844   0.78802   0.00000  Uiso   1.00
C63    C     0.21782   0.42091   0.20948   0.00000  Uiso   1.00
C64    C     0.78165   0.57861   0.78836   0.00000  Uiso   1.00
C65    C     0.57889   0.21801   0.21025   0.00000  Uiso   1.00
C66    C     0.42108   0.78202   0.78986   0.00000  Uiso   1.00
C67    C     0.78212   0.57899   0.20969   0.00000  Uiso   1.00
C68    C     0.72867   0.77130   0.24998   0.00000  Uiso   1.00
C69    C     0.21836   0.42144   0.78837   0.00000  Uiso   1.00
C70    C    -0.00000   0.50000   0.47333   0.00000  Uiso   1.00
C71    C     0.00000   0.50000   0.52667   0.00000  Uiso   1.00
C72    C     0.50000   0.00000   0.47333   0.00000  Uiso   1.00
C73    C     0.77128   0.72875   0.74998   0.00000  Uiso   1.00
C74    C     0.50000   0.00000   0.52667   0.00000  Uiso   1.00
C75    C     0.50000   0.00000   0.97333   0.00000  Uiso   1.00
C76    C     0.50000   0.00000   0.02667   0.00000  Uiso   1.00
C77    C     0.00000   0.50000   0.97333   0.00000  Uiso   1.00
C78    C     0.00000   0.50000   0.02667   0.00000  Uiso   1.00
C79    C     0.00000   0.50000   0.08998   0.00000  Uiso   1.00
C80    C     0.00000   0.50000   0.91002   0.00000  Uiso   1.00
C81    C     0.50000   0.00000   0.08998   0.00000  Uiso   1.00
C82    C     0.50000   0.00000   0.91002   0.00000  Uiso   1.00
C83    C     0.50000   0.00000   0.58998   0.00000  Uiso   1.00
C84    C     0.27128   0.77127   0.25000   0.00000  Uiso   1.00
C85    C     0.50000   0.00000   0.41002   0.00000  Uiso   1.00
C86    C     0.00000   0.50000   0.58998   0.00000  Uiso   1.00
C87    C     0.00000   0.50000   0.41002   0.00000  Uiso   1.00
C88    C     0.10506   0.60506   0.25000   0.00000  Uiso   1.00
C89    C     0.89494   0.39494   0.75000   0.00000  Uiso   1.00
C90    C     0.60507   0.89493   0.25000   0.00000  Uiso   1.00
C91    C     0.39494   0.10506   0.75000   0.00000  Uiso   1.00
C92    C     0.89494   0.39494   0.25000   0.00000  Uiso   1.00
C93    C     0.10506   0.60506   0.75000   0.00000  Uiso   1.00
C94    C     0.39493   0.10507   0.25000   0.00000  Uiso   1.00
C95    C     0.72873   0.22875   0.74999   0.00000  Uiso   1.00
C96    C     0.60506   0.89494   0.75000   0.00000  Uiso   1.00
C97    C     0.89492   0.60508   0.75000   0.00000  Uiso   1.00
C98    C     0.10507   0.39492   0.25000   0.00000  Uiso   1.00
C99    C     0.39492   0.89492   0.75000   0.00000  Uiso   1.00
C100   C     0.60508   0.10508   0.25000   0.00000  Uiso   1.00
C101   C     0.10508   0.39493   0.75000   0.00000  Uiso   1.00
C102   C     0.89492   0.60507   0.25000   0.00000  Uiso   1.00
C103   C     0.60508   0.10508   0.75000   0.00000  Uiso   1.00
C104   C     0.39492   0.89492   0.25000   0.00000  Uiso   1.00
C105   C     0.17537   0.25845   0.26775   0.00000  Uiso   1.00
C106   C     0.77127   0.72870   0.24998   0.00000  Uiso   1.00
C107   C     0.82486   0.74182   0.73337   0.00000  Uiso   1.00
C108   C     0.25823   0.82481   0.26676   0.00000  Uiso   1.00
C109   C     0.74185   0.17514   0.73357   0.00000  Uiso   1.00
C110   C     0.82461   0.74156   0.26761   0.00000  Uiso   1.00
C111   C     0.17518   0.25820   0.73343   0.00000  Uiso   1.00
C112   C     0.74163   0.17531   0.26736   0.00000  Uiso   1.00
C113   C     0.25837   0.82468   0.73261   0.00000  Uiso   1.00
C114   C     0.77828   0.30489   0.79977   0.00000  Uiso   1.00
C115   C     0.22157   0.69527   0.20013   0.00000  Uiso   1.00
C116   C     0.69518   0.77834   0.79978   0.00000  Uiso   1.00
C117   C     0.22875   0.27129   0.75003   0.00000  Uiso   1.00
C118   C     0.30393   0.22081   0.19968   0.00000  Uiso   1.00
C119   C     0.22101   0.69586   0.80022   0.00000  Uiso   1.00
C120   C     0.77899   0.30414   0.19978   0.00000  Uiso   1.00
C121   C     0.30486   0.22169   0.79982   0.00000  Uiso   1.00
C122   C     0.69606   0.77918   0.19964   0.00000  Uiso   1.00
C123   C     0.72169   0.80487   0.70019   0.00000  Uiso   1.00
C124   C     0.27916   0.19604   0.30035   0.00000  Uiso   1.00
C125   C     0.80487   0.27830   0.70022   0.00000  Uiso   1.00
C126   C     0.19529   0.72156   0.29987   0.00000  Uiso   1.00
C127   C     0.27834   0.19518   0.70022   0.00000  Uiso   1.00
C128   C     0.72872   0.22872   0.25000   0.00000  Uiso   1.00
C129   C     0.72079   0.80391   0.30033   0.00000  Uiso   1.00
C130   C     0.19586   0.72101   0.69978   0.00000  Uiso   1.00
C131   C     0.80414   0.27899   0.30022   0.00000  Uiso   1.00
C132   C     0.32482   0.75823   0.23325   0.00000  Uiso   1.00
C133   C     0.67512   0.24186   0.76643   0.00000  Uiso   1.00
C134   C     0.24154   0.32459   0.23230   0.00000  Uiso   1.00
C135   C     0.75820   0.67518   0.76658   0.00000  Uiso   1.00
C136   C     0.67531   0.24163   0.23265   0.00000  Uiso   1.00
C137   C     0.32468   0.75837   0.76739   0.00000  Uiso   1.00
C138   C     0.75842   0.67535   0.23234   0.00000  Uiso   1.00
C139   C     0.27128   0.77128   0.75000   0.00000  Uiso   1.00
C140   C     0.24182   0.32486   0.76664   0.00000  Uiso   1.00
C141   C     0.13436   0.29846   0.26859   0.00000  Uiso   1.00
C142   C     0.86586   0.70180   0.73251   0.00000  Uiso   1.00
C143   C     0.29824   0.86582   0.26762   0.00000  Uiso   1.00
C144   C     0.70184   0.13413   0.73270   0.00000  Uiso   1.00
C145   C     0.86563   0.70155   0.26845   0.00000  Uiso   1.00
C146   C     0.13417   0.29821   0.73254   0.00000  Uiso   1.00
C147   C     0.70162   0.13430   0.26820   0.00000  Uiso   1.00
C148   C     0.29838   0.86569   0.73176   0.00000  Uiso   1.00
C149   C     0.81828   0.34593   0.80058   0.00000  Uiso   1.00
C150   C     0.77133   0.27136   0.75000   0.00000  Uiso   1.00
C151   C     0.18158   0.65423   0.19933   0.00000  Uiso   1.00
C152   C     0.65412   0.81832   0.80058   0.00000  Uiso   1.00
C153   C     0.34498   0.18083   0.19889   0.00000  Uiso   1.00
C154   C     0.18102   0.65482   0.80101   0.00000  Uiso   1.00
C155   C     0.81898   0.34517   0.19898   0.00000  Uiso   1.00
C156   C     0.34591   0.18169   0.80061   0.00000  Uiso   1.00
C157   C     0.65502   0.81918   0.19886   0.00000  Uiso   1.00
C158   C     0.68170   0.84591   0.69940   0.00000  Uiso   1.00
C159   C     0.31916   0.15500   0.30113   0.00000  Uiso   1.00
C160   C     0.84592   0.31829   0.69942   0.00000  Uiso   1.00
H1     H     0.16604   0.21693   0.28149   0.00000  Uiso   1.00
H2     H     0.24783   0.70127   0.16180   0.00000  Uiso   1.00
H3     H     0.70109   0.75199   0.83806   0.00000  Uiso   1.00
H4     H     0.29738   0.24649   0.16099   0.00000  Uiso   1.00
H5     H     0.24683   0.70227   0.83882   0.00000  Uiso   1.00
H6     H     0.75316   0.29773   0.16118   0.00000  Uiso   1.00
H7     H     0.29896   0.24803   0.83810   0.00000  Uiso   1.00
H8     H     0.70261   0.75351   0.16094   0.00000  Uiso   1.00
H9     H     0.74804   0.79896   0.66191   0.00000  Uiso   1.00
H10    H     0.25348   0.20258   0.33904   0.00000  Uiso   1.00
H11    H     0.79899   0.25193   0.66196   0.00000  Uiso   1.00
H12    H     0.83441   0.78352   0.72049   0.00000  Uiso   1.00
H13    H     0.20128   0.74781   0.33821   0.00000  Uiso   1.00
H14    H     0.25200   0.20110   0.66194   0.00000  Uiso   1.00
H15    H     0.74646   0.79735   0.33902   0.00000  Uiso   1.00
H16    H     0.20227   0.74684   0.66118   0.00000  Uiso   1.00
H17    H     0.79773   0.25316   0.33882   0.00000  Uiso   1.00
H18    H     0.33434   0.71654   0.22025   0.00000  Uiso   1.00
H19    H     0.66554   0.28359   0.77918   0.00000  Uiso   1.00
H20    H     0.28306   0.33393   0.21856   0.00000  Uiso   1.00
H21    H     0.71650   0.66563   0.77946   0.00000  Uiso   1.00
H22    H     0.66591   0.28322   0.21919   0.00000  Uiso   1.00
H23    H     0.21655   0.83432   0.27975   0.00000  Uiso   1.00
H24    H     0.33408   0.71680   0.78088   0.00000  Uiso   1.00
H25    H     0.71688   0.66600   0.21867   0.00000  Uiso   1.00
H26    H     0.28352   0.33441   0.77952   0.00000  Uiso   1.00
H27    H     0.02463   0.22113   0.30381   0.00000  Uiso   1.00
H28    H     0.97623   0.77945   0.70065   0.00000  Uiso   1.00
H29    H     0.22060   0.97608   0.29995   0.00000  Uiso   1.00
H30    H     0.77954   0.02366   0.70141   0.00000  Uiso   1.00
H31    H     0.97549   0.77891   0.30319   0.00000  Uiso   1.00
H32    H     0.02380   0.22056   0.70071   0.00000  Uiso   1.00
H33    H     0.77907   0.02428   0.30209   0.00000  Uiso   1.00
H34    H     0.78358   0.16557   0.72081   0.00000  Uiso   1.00
H35    H     0.22099   0.97570   0.69775   0.00000  Uiso   1.00
H36    H     0.80481   0.39028   0.94195   0.00000  Uiso   1.00
H37    H     0.19444   0.61032   0.05776   0.00000  Uiso   1.00
H38    H     0.60985   0.80503   0.94198   0.00000  Uiso   1.00
H39    H     0.38644   0.19066   0.05619   0.00000  Uiso   1.00
H40    H     0.19155   0.61278   0.94344   0.00000  Uiso   1.00
H41    H     0.80845   0.38720   0.05654   0.00000  Uiso   1.00
H42    H     0.39017   0.19495   0.94201   0.00000  Uiso   1.00
H43    H     0.61363   0.80948   0.05613   0.00000  Uiso   1.00
H44    H     0.69498   0.89019   0.55801   0.00000  Uiso   1.00
H45    H     0.83396   0.78310   0.28128   0.00000  Uiso   1.00
H46    H     0.30933   0.11351   0.44383   0.00000  Uiso   1.00
H47    H     0.89025   0.30493   0.55805   0.00000  Uiso   1.00
H48    H     0.11036   0.69435   0.44225   0.00000  Uiso   1.00
H49    H     0.30506   0.10988   0.55801   0.00000  Uiso   1.00
H50    H     0.69050   0.88632   0.44386   0.00000  Uiso   1.00
H51    H     0.11277   0.69157   0.55656   0.00000  Uiso   1.00
H52    H     0.88720   0.30845   0.44346   0.00000  Uiso   1.00
H53    H     0.47610   0.72061   0.20008   0.00000  Uiso   1.00
H54    H     0.52363   0.27953   0.79858   0.00000  Uiso   1.00
H55    H     0.27886   0.47534   0.19624   0.00000  Uiso   1.00
H56    H     0.16564   0.21650   0.72055   0.00000  Uiso   1.00
H57    H     0.72056   0.52380   0.79930   0.00000  Uiso   1.00
H58    H     0.52429   0.27907   0.19790   0.00000  Uiso   1.00
H59    H     0.47570   0.72099   0.80226   0.00000  Uiso   1.00
H60    H     0.72108   0.52448   0.19676   0.00000  Uiso   1.00
H61    H     0.27946   0.47623   0.79937   0.00000  Uiso   1.00
H62    H     0.78322   0.16590   0.28081   0.00000  Uiso   1.00
H63    H     0.21679   0.83408   0.71912   0.00000  Uiso   1.00
H64    H     0.75190   0.29901   0.83803   0.00000  Uiso   1.00
O1     O     0.00000   0.50000   0.25000   0.00000  Uiso   1.00
O2     O     0.00000   0.45454   0.88202   0.00000  Uiso   1.00
O3     O     0.85989   0.30385   0.40986   0.00000  Uiso   1.00
O4     O     0.45222   0.81512   0.18856   0.00000  Uiso   1.00
O5     O     0.43785   0.72702   0.21621   0.00000  Uiso   1.00
O6     O     0.54769   0.18516   0.81108   0.00000  Uiso   1.00
O7     O     0.56193   0.27306   0.78261   0.00000  Uiso   1.00
O8     O     0.18408   0.45170   0.18715   0.00000  Uiso   1.00
O9     O     0.27265   0.43725   0.21291   0.00000  Uiso   1.00
O10    O     0.81499   0.54779   0.81132   0.00000  Uiso   1.00
O11    O     0.72699   0.56207   0.78322   0.00000  Uiso   1.00
O12    O     0.54809   0.18442   0.18768   0.00000  Uiso   1.00
O13    O     0.54546   0.00000   0.11798   0.00000  Uiso   1.00
O14    O     0.56245   0.27278   0.21433   0.00000  Uiso   1.00
O15    O     0.45182   0.81562   0.81247   0.00000  Uiso   1.00
O16    O     0.43754   0.72727   0.78578   0.00000  Uiso   1.00
O17    O     0.81582   0.54820   0.18730   0.00000  Uiso   1.00
O18    O     0.72731   0.56260   0.21333   0.00000  Uiso   1.00
O19    O     0.18500   0.45230   0.81124   0.00000  Uiso   1.00
O20    O     0.27303   0.43795   0.78332   0.00000  Uiso   1.00
O21    O     0.45454   0.00000   0.88202   0.00000  Uiso   1.00
O22    O     0.50000   0.95454   0.61798   0.00000  Uiso   1.00
O23    O     0.50000   0.04546   0.38202   0.00000  Uiso   1.00
O24    O     0.95454   0.50000   0.61798   0.00000  Uiso   1.00
O25    O     0.04546   0.50000   0.38202   0.00000  Uiso   1.00
O26    O     0.50000   0.04546   0.61798   0.00000  Uiso   1.00
O27    O     0.50000   0.95454   0.38202   0.00000  Uiso   1.00
O28    O     0.04546   0.50000   0.61798   0.00000  Uiso   1.00
O29    O     0.00000   0.50000   0.75000   0.00000  Uiso   1.00
O30    O     0.95454   0.50000   0.38202   0.00000  Uiso   1.00
O31    O     0.06399   0.60947   0.21539   0.00000  Uiso   1.00
O32    O     0.93601   0.39053   0.78461   0.00000  Uiso   1.00
O33    O     0.60947   0.93601   0.21539   0.00000  Uiso   1.00
O34    O     0.39053   0.06399   0.78461   0.00000  Uiso   1.00
O35    O     0.93601   0.39053   0.21539   0.00000  Uiso   1.00
O36    O     0.06399   0.60947   0.78461   0.00000  Uiso   1.00
O37    O     0.39053   0.06399   0.21539   0.00000  Uiso   1.00
O38    O     0.60947   0.93601   0.78461   0.00000  Uiso   1.00
O39    O     0.93601   0.60947   0.78461   0.00000  Uiso   1.00
O40    O     0.50000   0.00000   0.25000   0.00000  Uiso   1.00
O41    O     0.06399   0.39053   0.21539   0.00000  Uiso   1.00
O42    O     0.39053   0.93601   0.78461   0.00000  Uiso   1.00
O43    O     0.60947   0.06399   0.21539   0.00000  Uiso   1.00
O44    O     0.06399   0.39053   0.78461   0.00000  Uiso   1.00
O45    O     0.93601   0.60947   0.21539   0.00000  Uiso   1.00
O46    O     0.60947   0.06399   0.78461   0.00000  Uiso   1.00
O47    O     0.39053   0.93601   0.21539   0.00000  Uiso   1.00
O48    O     0.56399   0.10947   0.71539   0.00000  Uiso   1.00
O49    O     0.43601   0.89053   0.28461   0.00000  Uiso   1.00
O50    O     0.10947   0.43601   0.71539   0.00000  Uiso   1.00
O51    O     0.50000   0.00000   0.75000   0.00000  Uiso   1.00
O52    O     0.89053   0.56399   0.28461   0.00000  Uiso   1.00
O53    O     0.43601   0.89053   0.71539   0.00000  Uiso   1.00
O54    O     0.56399   0.10947   0.28461   0.00000  Uiso   1.00
O55    O     0.89053   0.56399   0.71539   0.00000  Uiso   1.00
O56    O     0.10947   0.43601   0.28461   0.00000  Uiso   1.00
O57    O     0.43601   0.10947   0.28461   0.00000  Uiso   1.00
O58    O     0.56399   0.89053   0.71539   0.00000  Uiso   1.00
O59    O     0.89053   0.43601   0.28461   0.00000  Uiso   1.00
O60    O     0.10947   0.56399   0.71539   0.00000  Uiso   1.00
O61    O     0.56399   0.89053   0.28461   0.00000  Uiso   1.00
O62    O     0.00000   0.45454   0.11798   0.00000  Uiso   1.00
O63    O     0.43601   0.10947   0.71539   0.00000  Uiso   1.00
O64    O     0.10947   0.56399   0.28461   0.00000  Uiso   1.00
O65    O     0.89053   0.43601   0.71539   0.00000  Uiso   1.00
O66    O     0.04823   0.31593   0.31278   0.00000  Uiso   1.00
O67    O     0.06273   0.22734   0.28717   0.00000  Uiso   1.00
O68    O     0.95229   0.68500   0.68874   0.00000  Uiso   1.00
O69    O     0.93796   0.77302   0.71671   0.00000  Uiso   1.00
O70    O     0.31511   0.95223   0.31142   0.00000  Uiso   1.00
O71    O     0.22701   0.93783   0.28382   0.00000  Uiso   1.00
O72    O     0.68517   0.04769   0.68893   0.00000  Uiso   1.00
O73    O     0.00000   0.54546   0.88202   0.00000  Uiso   1.00
O74    O     0.77307   0.06196   0.71738   0.00000  Uiso   1.00
O75    O     0.95171   0.68419   0.31277   0.00000  Uiso   1.00
O76    O     0.93738   0.77267   0.28659   0.00000  Uiso   1.00
O77    O     0.04779   0.31499   0.68868   0.00000  Uiso   1.00
O78    O     0.06207   0.22700   0.71679   0.00000  Uiso   1.00
O79    O     0.68442   0.04809   0.31232   0.00000  Uiso   1.00
O80    O     0.77278   0.06245   0.28567   0.00000  Uiso   1.00
O81    O     0.31562   0.95182   0.68752   0.00000  Uiso   1.00
O82    O     0.22727   0.93755   0.71423   0.00000  Uiso   1.00
O83    O     0.84192   0.42716   0.85199   0.00000  Uiso   1.00
O84    O     0.45454   0.00000   0.11798   0.00000  Uiso   1.00
O85    O     0.80064   0.36254   0.90869   0.00000  Uiso   1.00
O86    O     0.15805   0.57302   0.14784   0.00000  Uiso   1.00
O87    O     0.19868   0.63800   0.09106   0.00000  Uiso   1.00
O88    O     0.57282   0.84180   0.85194   0.00000  Uiso   1.00
O89    O     0.63761   0.80088   0.90874   0.00000  Uiso   1.00
O90    O     0.42584   0.15750   0.14674   0.00000  Uiso   1.00
O91    O     0.35923   0.19533   0.08987   0.00000  Uiso   1.00
O92    O     0.15761   0.57388   0.85300   0.00000  Uiso   1.00
O93    O     0.19614   0.64010   0.90985   0.00000  Uiso   1.00
O94    O     0.84241   0.42610   0.14698   0.00000  Uiso   1.00
O95    O     0.54546   0.00000   0.88202   0.00000  Uiso   1.00
O96    O     0.80385   0.35989   0.09014   0.00000  Uiso   1.00
O97    O     0.42719   0.15817   0.85197   0.00000  Uiso   1.00
O98    O     0.36242   0.19911   0.90877   0.00000  Uiso   1.00
O99    O     0.57417   0.84253   0.14670   0.00000  Uiso   1.00
O100   O     0.64083   0.80478   0.08982   0.00000  Uiso   1.00
O101   O     0.65817   0.92719   0.64804   0.00000  Uiso   1.00
O102   O     0.69914   0.86244   0.59124   0.00000  Uiso   1.00
O103   O     0.34253   0.07414   0.35328   0.00000  Uiso   1.00
O104   O     0.30465   0.14073   0.41015   0.00000  Uiso   1.00
O105   O     0.92720   0.34183   0.64806   0.00000  Uiso   1.00
O106   O     0.00000   0.54546   0.11798   0.00000  Uiso   1.00
O107   O     0.86249   0.30077   0.59129   0.00000  Uiso   1.00
O108   O     0.07299   0.65811   0.35212   0.00000  Uiso   1.00
O109   O     0.13804   0.69858   0.40895   0.00000  Uiso   1.00
O110   O     0.34179   0.07283   0.64805   0.00000  Uiso   1.00
O111   O     0.30091   0.13764   0.59125   0.00000  Uiso   1.00
O112   O     0.65750   0.92581   0.35329   0.00000  Uiso   1.00
O113   O     0.69519   0.85912   0.41016   0.00000  Uiso   1.00
O114   O     0.07388   0.65761   0.64700   0.00000  Uiso   1.00
O115   O     0.14009   0.69615   0.59015   0.00000  Uiso   1.00
O116   O     0.92610   0.34241   0.35302   0.00000  Uiso   1.00
Zn1    Zn    0.06497   0.50000   0.29947   0.00000  Uiso   1.00
Zn2    Zn    0.43503   0.00000   0.20053   0.00000  Uiso   1.00
Zn3    Zn    0.00000   0.43503   0.79947   0.00000  Uiso   1.00
Zn4    Zn    0.00000   0.56497   0.20053   0.00000  Uiso   1.00
Zn5    Zn    0.43503   0.00000   0.79947   0.00000  Uiso   1.00
Zn6    Zn    0.56497   0.00000   0.20053   0.00000  Uiso   1.00
Zn7    Zn    0.00000   0.56497   0.79947   0.00000  Uiso   1.00
Zn8    Zn    0.00000   0.43503   0.20053   0.00000  Uiso   1.00
Zn9    Zn    0.93503   0.50000   0.70053   0.00000  Uiso   1.00
Zn10   Zn    0.50000   0.93503   0.29947   0.00000  Uiso   1.00
Zn11   Zn    0.50000   0.06497   0.70053   0.00000  Uiso   1.00
Zn12   Zn    0.93503   0.50000   0.29947   0.00000  Uiso   1.00
Zn13   Zn    0.06497   0.50000   0.70053   0.00000  Uiso   1.00
Zn14   Zn    0.50000   0.06497   0.29947   0.00000  Uiso   1.00
Zn15   Zn    0.50000   0.93503   0.70053   0.00000  Uiso   1.00
Zn16   Zn    0.56497   0.00000   0.79947   0.00000  Uiso   1.00
loop_
_geom_bond_atom_site_label_1
_geom_bond_atom_site_label_2
_geom_bond_distance
_geom_bond_site_symmetry_2
_ccdc_geom_bond_type
C1     C105    1.397   .     A
C1     C24     1.471   .     S
C1     C134    1.397   .     A
C2     C84     1.471   .     S
C2     C115    1.397   .     A
C2     C126    1.397   .     A
C3     C55     1.493   .     S
C3     C27     1.422   .     A
C3     C126    1.399   .     A
C4     C56     1.493   .     S
C4     C32     1.422   .     A
C4     C127    1.399   .     A
C5     C58     1.492   .     S
C5     C33     1.421   .     A
C5     C129    1.399   .     A
C6     C30     1.421   .     A
C6     C130    1.399   .     A
C6     C59     1.492   .     S
C7     C131    1.399   .     A
C7     C60     1.493   .     S
C7     C31     1.422   .     A
C8     C19     1.421   .     A
C8     C132    1.399   .     A
C8     C61     1.492   .     S
C9     C133    1.399   .     A
C9     C20     1.421   .     A
C9     C62     1.491   .     S
C10    C63     1.492   .     S
C10    C17     1.421   .     A
C10    C134    1.399   .     A
C11    C18     1.421   .     A
C11    C135    1.399   .     A
C11    C64     1.491   .     S
C12    C23     1.421   .     A
C12    C136    1.399   .     A
C12    C65     1.492   .     S
C13    C73     1.471   .     S
C13    C123    1.397   .     A
C13    C116    1.397   .     A
C14    C137    1.399   .     A
C14    C25     1.421   .     A
C14    C66     1.492   .     S
C15    C67     1.492   .     S
C15    C138    1.399   .     A
C15    C21     1.421   .     A
C16    C140    1.399   .     A
C16    C22     1.421   .     A
C16    C69     1.492   .     S
C17    C98     1.463   .     S
C17    C141    1.421   .     A
C18    C97     1.463   .     S
C18    C142    1.421   .     A
C19    C104    1.463   .     S
C19    C143    1.421   .     A
C20    C144    1.421   .     A
C20    C103    1.463   .     S
C21    C102    1.463   .     S
C21    C145    1.421   .     A
C22    C146    1.421   .     A
C22    C101    1.463   .     S
C23    C100    1.463   .     S
C23    C147    1.421   .     A
C24    C124    1.397   .     A
C24    C118    1.397   .     A
C25    C99     1.463   .     S
C25    C148    1.421   .     A
C26    C160    1.422   .     A
C26    C149    1.422   .     A
C26    C89     1.462   .     S
C27    C151    1.422   .     A
C27    C88     1.462   .     S
C28    C158    1.422   .     A
C28    C96     1.462   .     S
C28    C152    1.422   .     A
C29    C94     1.462   .     S
C29    C159    1.421   .     A
C29    C153    1.421   .     A
C30    C154    1.421   .     A
C30    C93     1.462   .     S
C31    C155    1.422   .     A
C31    C92     1.462   .     S
C32    C156    1.422   .     A
C32    C91     1.462   .     S
C33    C157    1.421   .     A
C33    C90     1.462   .     S
C34    O67     1.399   .     S
C34    C141    1.492   .     S
C34    O66     1.223   .     D
C35    C139    1.471   .     S
C35    C130    1.397   .     A
C35    C119    1.397   .     A
C36    C142    1.492   .     S
C36    O69     1.399   .     S
C36    O68     1.223   .     D
C37    O71     1.399   .     S
C37    C143    1.492   .     S
C37    O70     1.223   .     D
C38    O72     1.223   .     D
C38    O74     1.399   .     S
C38    C144    1.491   .     S
C39    O76     1.399   .     S
C39    C145    1.492   .     S
C39    O75     1.223   .     D
C40    O77     1.223   .     D
C40    C146    1.491   .     S
C40    O78     1.399   .     S
C41    O79     1.223   .     D
C41    O80     1.399   .     S
C41    C147    1.492   .     S
C42    O81     1.223   .     D
C42    C148    1.492   .     S
C42    O82     1.399   .     S
C43    O83     1.223   .     D
C43    C149    1.493   .     S
C43    O85     1.399   .     S
C44    O87     1.399   .     S
C44    C151    1.493   .     S
C44    O86     1.223   .     D
C45    O89     1.399   .     S
C45    O88     1.223   .     D
C45    C152    1.493   .     S
C46    C120    1.397   .     A
C46    C128    1.471   .     S
C46    C131    1.397   .     A
C47    C153    1.492   .     S
C47    O90     1.223   .     D
C47    O91     1.399   .     S
C48    C154    1.492   .     S
C48    O92     1.223   .     D
C48    O93     1.399   .     S
C49    C155    1.493   .     S
C49    O94     1.223   .     D
C49    O96     1.399   .     S
C50    O98     1.399   .     S
C50    C156    1.493   .     S
C50    O97     1.223   .     D
C51    C157    1.492   .     S
C51    O100    1.399   .     S
C51    O99     1.223   .     D
C52    O102    1.399   .     S
C52    C158    1.493   .     S
C52    O101    1.223   .     D
C53    C159    1.492   .     S
C53    O104    1.399   .     S
C53    O103    1.223   .     D
C54    O107    1.399   .     S
C54    O105    1.223   .     D
C54    C160    1.493   .     S
C55    O109    1.399   .     S
C55    O108    1.223   .     D
C56    O110    1.223   .     D
C56    O111    1.399   .     S
C57    C127    1.397   .     A
C57    C117    1.471   .     S
C57    C121    1.397   .     A
C58    O112    1.223   .     D
C58    O113    1.399   .     S
C59    O114    1.223   .     D
C59    O115    1.399   .     S
C60    O116    1.223   .     D
C60    O3      1.399   .     S
C61    O5      1.399   .     S
C61    O4      1.223   .     D
C62    O6      1.223   .     D
C62    O7      1.399   .     S
C63    O9      1.399   .     S
C63    O8      1.223   .     D
C64    O11     1.399   .     S
C64    O10     1.223   .     D
C65    O12     1.223   .     D
C65    O14     1.399   .     S
C66    O16     1.399   .     S
C66    O15     1.223   .     D
C67    O18     1.399   .     S
C67    O17     1.223   .     D
C68    C122    1.397   .     A
C68    C129    1.397   .     A
C68    C106    1.471   .     S
C69    O20     1.399   .     S
C69    O19     1.223   .     D
C70    C87     1.423   .     S
C70    C71     1.199   .     S
C71    C86     1.423   .     S
C72    C85     1.423   .     S
C72    C74     1.199   .     S
C73    C135    1.397   .     A
C73    C107    1.397   .     A
C74    C83     1.423   .     S
C75    C82     1.423   .     S
C75    C76     1.199   1_556 S
C76    C75     1.199   1_554 S
C76    C81     1.423   .     S
C77    C80     1.423   .     S
C77    C78     1.199   1_556 S
C78    C79     1.423   .     S
C78    C77     1.199   1_554 S
C79    O62     1.276   .     S
C79    O106    1.276   .     S
C80    O2      1.276   .     A
C80    O73     1.276   .     S
C81    O13     1.276   .     A
C81    O84     1.276   .     A
C82    O21     1.276   .     S
C82    O95     1.276   .     S
C83    O22     1.276   1_545 A
C83    O26     1.276   .     S
C84    C132    1.397   .     A
C84    C108    1.397   .     A
C85    O23     1.276   .     A
C85    O27     1.276   1_545 S
C86    O28     1.276   .     A
C86    O24     1.276   1_455 S
C87    O30     1.276   1_455 A
C87    O25     1.276   .     S
C88    O64     1.274   .     A
C88    O31     1.274   .     A
C89    O65     1.274   .     A
C89    O32     1.274   .     A
C90    O33     1.274   .     A
C90    O61     1.274   .     A
C91    O63     1.274   .     A
C91    O34     1.274   .     A
C92    O59     1.274   .     A
C92    O35     1.274   .     A
C93    O60     1.274   .     A
C93    O36     1.274   .     A
C94    O57     1.274   .     A
C94    O37     1.274   .     A
C95    C133    1.397   .     A
C95    C109    1.397   .     A
C95    C150    1.471   .     S
C96    O38     1.274   .     A
C96    O58     1.274   .     A
C97    O39     1.274   .     A
C97    O55     1.274   .     A
C98    O41     1.274   .     A
C98    O56     1.274   .     A
C99    O42     1.274   .     A
C99    O53     1.274   .     A
C100   O54     1.274   .     A
C100   O43     1.274   .     A
C101   O44     1.274   .     A
C101   O50     1.274   .     A
C102   O45     1.274   .     A
C102   O52     1.274   .     A
C103   O46     1.274   .     A
C103   O48     1.274   .     A
C104   O47     1.274   .     A
C104   O49     1.274   .     A
C105   H1      1.084   .     S
C105   C141    1.399   .     A
C106   C138    1.397   .     A
C106   C110    1.397   .     A
C107   H12     1.084   .     S
C107   C142    1.399   .     A
C108   H23     1.084   .     S
C108   C143    1.399   .     A
C109   C144    1.399   .     A
C109   H34     1.084   .     S
C110   C145    1.399   .     A
C110   H45     1.084   .     S
C111   C146    1.399   .     A
C111   C117    1.397   .     A
C111   H56     1.084   .     S
C112   C147    1.399   .     A
C112   C128    1.397   .     A
C112   H62     1.084   .     S
C113   C148    1.399   .     A
C113   H63     1.084   .     S
C113   C139    1.397   .     A
C114   C149    1.399   .     A
C114   H64     1.084   .     S
C114   C150    1.397   .     A
C115   C151    1.399   .     A
C115   H2      1.084   .     S
C116   H3      1.084   .     S
C116   C152    1.399   .     A
C117   C140    1.397   .     A
C118   H4      1.084   .     S
C118   C153    1.399   .     A
C119   H5      1.084   .     S
C119   C154    1.399   .     A
C120   H6      1.084   .     S
C120   C155    1.399   .     A
C121   C156    1.399   .     A
C121   H7      1.084   .     S
C122   H8      1.084   .     S
C122   C157    1.399   .     A
C123   H9      1.084   .     S
C123   C158    1.399   .     A
C124   C159    1.399   .     A
C124   H10     1.084   .     S
C125   H11     1.084   .     S
C125   C160    1.399   .     A
C125   C150    1.397   .     A
C126   H13     1.084   .     S
C127   H14     1.084   .     S
C128   C136    1.397   .     A
C129   H15     1.084   .     S
C130   H16     1.084   .     S
C131   H17     1.084   .     S
C132   H18     1.084   .     S
C133   H19     1.084   .     S
C134   H20     1.084   .     S
C135   H21     1.084   .     S
C136   H22     1.084   .     S
C137   H24     1.084   .     S
C137   C139    1.397   .     A
C138   H25     1.084   .     S
C140   H26     1.084   .     S
H27    O67     1.014   .     S
H28    O69     1.014   .     S
H29    O71     1.014   .     S
H30    O74     1.014   .     S
H31    O76     1.014   .     S
H32    O78     1.014   .     S
H33    O80     1.014   .     S
H35    O82     1.014   .     S
H36    O85     1.014   .     S
H37    O87     1.014   .     S
H38    O89     1.014   .     S
H39    O91     1.014   .     S
H40    O93     1.014   .     S
H41    O96     1.014   .     S
H42    O98     1.014   .     S
H43    O100    1.014   .     S
H44    O102    1.014   .     S
H46    O104    1.014   .     S
H47    O107    1.014   .     S
H48    O109    1.014   .     S
H49    O111    1.014   .     S
H50    O113    1.014   .     S
H51    O115    1.014   .     S
H52    O3      1.014   .     S
H53    O5      1.014   .     S
H54    O7      1.014   .     S
H55    O9      1.014   .     S
H57    O11     1.014   .     S
H58    O14     1.014   .     S
H59    O16     1.014   .     S
H60    O18     1.014   .     S
H61    O20     1.014   .     S
O1     Zn4     1.937   .     S
O1     Zn8     1.937   .     S
O1     Zn12    1.937   1_455 S
O1     Zn1     1.937   .     S
O2     Zn3     1.916   .     S
O13    Zn6     1.916   .     S
O21    Zn5     1.916   .     S
O22    Zn15    1.916   .     S
O22    C83     1.276   1_565 A
O23    Zn14    1.916   .     S
O24    Zn9     1.916   .     S
O24    C86     1.276   1_655 S
O25    Zn1     1.916   .     S
O26    Zn11    1.916   .     S
O27    Zn10    1.916   .     S
O27    C85     1.276   1_565 S
O28    Zn13    1.916   .     S
O29    Zn9     1.937   1_455 S
O29    Zn3     1.937   .     S
O29    Zn7     1.937   .     S
O29    Zn13    1.937   .     S
O30    Zn12    1.916   .     S
O30    C87     1.276   1_655 A
O31    Zn4     1.932   .     S
O32    Zn3     1.932   1_655 S
O33    Zn6     1.932   1_565 S
O34    Zn5     1.932   .     S
O35    Zn8     1.932   1_655 S
O36    Zn7     1.932   .     S
O37    Zn2     1.932   .     S
O38    Zn16    1.932   1_565 S
O39    Zn7     1.932   1_655 S
O40    Zn6     1.937   .     S
O40    Zn2     1.937   .     S
O40    Zn14    1.937   .     S
O40    Zn10    1.937   1_545 S
O41    Zn8     1.932   .     S
O42    Zn5     1.932   1_565 S
O43    Zn6     1.932   .     S
O44    Zn3     1.932   .     S
O45    Zn4     1.932   1_655 S
O46    Zn16    1.932   .     S
O47    Zn2     1.932   1_565 S
O48    Zn11    1.932   .     S
O49    Zn10    1.932   .     S
O50    Zn13    1.932   .     S
O51    Zn16    1.937   .     S
O51    Zn5     1.937   .     S
O51    Zn11    1.937   .     S
O51    Zn15    1.937   1_545 S
O52    Zn12    1.932   .     S
O53    Zn15    1.932   .     S
O54    Zn14    1.932   .     S
O55    Zn9     1.932   .     S
O56    Zn1     1.932   .     S
O57    Zn14    1.932   .     S
O58    Zn15    1.932   .     S
O59    Zn12    1.932   .     S
O60    Zn13    1.932   .     S
O61    Zn10    1.932   .     S
O62    Zn8     1.916   .     S
O63    Zn11    1.932   .     S
O64    Zn1     1.932   .     S
O65    Zn9     1.932   .     S
O73    Zn7     1.916   .     S
O84    Zn2     1.916   .     S
O95    Zn16    1.916   .     S
O106   Zn4     1.916   .     S
Zn2    O47     1.932   1_545 S
Zn3    O32     1.932   1_455 S
Zn4    O45     1.932   1_455 S
Zn5    O42     1.932   1_545 S
Zn6    O33     1.932   1_545 S
Zn7    O39     1.932   1_455 S
Zn8    O35     1.932   1_455 S
Zn9    O29     1.937   1_655 S
Zn10   O40     1.937   1_565 S
Zn12   O1      1.937   1_655 S
Zn15   O51     1.937   1_565 S
Zn16   O38     1.932   1_545 S
