data_str_m1_o2_o5_pcu_sym.18
_audit_creation_date              2020-01-03
_audit_creation_method            'Materials Studio'
_symmetry_space_group_name_H-M    'P1'
_symmetry_Int_Tables_number       1
_symmetry_cell_setting            triclinic
loop_
_symmetry_equiv_pos_as_xyz
  x,y,z
_cell_length_a                    24.4529
_cell_length_b                    24.4170
_cell_length_c                    22.4583
_cell_angle_alpha                 90.0063
_cell_angle_beta                  90.0065
_cell_angle_gamma                 90.0003
loop_
_atom_site_label
_atom_site_type_symbol
_atom_site_fract_x
_atom_site_fract_y
_atom_site_fract_z
_atom_site_U_iso_or_equiv
_atom_site_adp_type
_atom_site_occupancy
C1     C     0.22967   0.27219   0.24899   0.00000  Uiso   1.00
C2     C     0.22759   0.72985   0.25070   0.00000  Uiso   1.00
C3     C     0.17468   0.66163   0.19663   0.00000  Uiso   1.00
C4     C     0.36548   0.20136   0.76914   0.00000  Uiso   1.00
C5     C     0.63446   0.79779   0.23662   0.00000  Uiso   1.00
C6     C     0.16091   0.67533   0.69678   0.00000  Uiso   1.00
C7     C     0.79729   0.36733   0.23522   0.00000  Uiso   1.00
C8     C     0.36552   0.79782   0.23646   0.00000  Uiso   1.00
C9     C     0.63409   0.20258   0.76183   0.00000  Uiso   1.00
C10    C     0.20271   0.36733   0.23522   0.00000  Uiso   1.00
C11    C     0.79726   0.63316   0.76208   0.00000  Uiso   1.00
C12    C     0.65994   0.17570   0.19588   0.00000  Uiso   1.00
C13    C     0.72867   0.77126   0.75002   0.00000  Uiso   1.00
C14    C     0.36733   0.79692   0.76320   0.00000  Uiso   1.00
C15    C     0.82515   0.66146   0.19668   0.00000  Uiso   1.00
C16    C     0.17327   0.33713   0.80432   0.00000  Uiso   1.00
C17    C     0.14804   0.35280   0.24945   0.00000  Uiso   1.00
C18    C     0.85240   0.64763   0.75008   0.00000  Uiso   1.00
C19    C     0.35196   0.85280   0.25054   0.00000  Uiso   1.00
C20    C     0.64798   0.14731   0.74949   0.00000  Uiso   1.00
C21    C     0.85276   0.64796   0.25031   0.00000  Uiso   1.00
C22    C     0.14762   0.35231   0.75004   0.00000  Uiso   1.00
C23    C     0.64724   0.14797   0.24970   0.00000  Uiso   1.00
C24    C     0.27242   0.22986   0.24929   0.00000  Uiso   1.00
C25    C     0.35275   0.85196   0.75038   0.00000  Uiso   1.00
C26    C     0.85271   0.35211   0.74975   0.00000  Uiso   1.00
C27    C     0.14726   0.64796   0.25031   0.00000  Uiso   1.00
C28    C     0.64754   0.85236   0.74997   0.00000  Uiso   1.00
C29    C     0.35275   0.14796   0.24969   0.00000  Uiso   1.00
C30    C     0.14780   0.64738   0.75032   0.00000  Uiso   1.00
C31    C     0.85196   0.35279   0.24944   0.00000  Uiso   1.00
C32    C     0.35250   0.14759   0.74994   0.00000  Uiso   1.00
C33    C     0.64804   0.85280   0.25055   0.00000  Uiso   1.00
C34    C     0.07792   0.28247   0.28163   0.00000  Uiso   1.00
C35    C     0.22965   0.72773   0.75059   0.00000  Uiso   1.00
C36    C     0.92406   0.71840   0.72268   0.00000  Uiso   1.00
C37    C     0.28280   0.92454   0.28210   0.00000  Uiso   1.00
C38    C     0.71786   0.07514   0.72103   0.00000  Uiso   1.00
C39    C     0.87055   0.66392   0.36024   0.00000  Uiso   1.00
C40    C     0.13427   0.33980   0.63881   0.00000  Uiso   1.00
C41    C     0.66381   0.13100   0.35965   0.00000  Uiso   1.00
C42    C     0.28203   0.92297   0.72148   0.00000  Uiso   1.00
C43    C     0.87146   0.33511   0.64021   0.00000  Uiso   1.00
C44    C     0.12985   0.66360   0.36038   0.00000  Uiso   1.00
C45    C     0.62824   0.83427   0.85917   0.00000  Uiso   1.00
C46    C     0.77033   0.27219   0.24899   0.00000  Uiso   1.00
C47    C     0.37049   0.16387   0.13975   0.00000  Uiso   1.00
C48    C     0.16436   0.62904   0.86004   0.00000  Uiso   1.00
C49    C     0.92209   0.28247   0.28161   0.00000  Uiso   1.00
C50    C     0.28543   0.07886   0.70772   0.00000  Uiso   1.00
C51    C     0.71725   0.92459   0.28186   0.00000  Uiso   1.00
C52    C     0.66559   0.87166   0.64077   0.00000  Uiso   1.00
C53    C     0.33621   0.13100   0.35965   0.00000  Uiso   1.00
C54    C     0.83517   0.37027   0.85929   0.00000  Uiso   1.00
C55    C     0.16350   0.63128   0.14023   0.00000  Uiso   1.00
C56    C     0.42108   0.21486   0.79206   0.00000  Uiso   1.00
C57    C     0.27140   0.22867   0.75000   0.00000  Uiso   1.00
C58    C     0.57789   0.78244   0.21848   0.00000  Uiso   1.00
C59    C     0.13009   0.66458   0.64062   0.00000  Uiso   1.00
C60    C     0.78277   0.42457   0.21806   0.00000  Uiso   1.00
C61    C     0.42205   0.78251   0.21817   0.00000  Uiso   1.00
C62    C     0.57712   0.21830   0.77806   0.00000  Uiso   1.00
C63    C     0.21723   0.42457   0.21806   0.00000  Uiso   1.00
C64    C     0.78188   0.57573   0.77751   0.00000  Uiso   1.00
C65    C     0.62947   0.16388   0.13976   0.00000  Uiso   1.00
C66    C     0.42467   0.78191   0.77908   0.00000  Uiso   1.00
C67    C     0.83616   0.63094   0.14036   0.00000  Uiso   1.00
C68    C     0.72967   0.77219   0.25101   0.00000  Uiso   1.00
C69    C     0.16008   0.36568   0.86128   0.00000  Uiso   1.00
C70    C     0.00000   0.50002   0.47332   0.00000  Uiso   1.00
C71    C     0.00000   0.50001   0.52668   0.00000  Uiso   1.00
C72    C     0.50001   0.00001   0.47333   0.00000  Uiso   1.00
C73    C     0.77124   0.72873   0.75005   0.00000  Uiso   1.00
C74    C     0.50002  -0.00000   0.52667   0.00000  Uiso   1.00
C75    C     0.50001   0.00001   0.97332   0.00000  Uiso   1.00
C76    C     0.50000   0.00002   0.02668   0.00000  Uiso   1.00
C77    C     0.00002   0.50000   0.97333   0.00000  Uiso   1.00
C78    C     0.00002   0.50000   0.02667   0.00000  Uiso   1.00
C79    C     0.00000   0.50000   0.08999   0.00000  Uiso   1.00
C80    C     0.00001   0.50000   0.91001   0.00000  Uiso   1.00
C81    C     0.50000   0.00002   0.09001   0.00000  Uiso   1.00
C82    C     0.50000  -0.00000   0.90999   0.00000  Uiso   1.00
C83    C     0.50001  -0.00000   0.58999   0.00000  Uiso   1.00
C84    C     0.27034   0.77219   0.25100   0.00000  Uiso   1.00
C85    C     0.50000   0.00000   0.41001   0.00000  Uiso   1.00
C86    C    -0.00000   0.49999   0.59001   0.00000  Uiso   1.00
C87    C     0.00000   0.50003   0.40999   0.00000  Uiso   1.00
C88    C     0.10507   0.60518   0.25004   0.00000  Uiso   1.00
C89    C     0.89493   0.39484   0.74997   0.00000  Uiso   1.00
C90    C     0.60522   0.89498   0.25016   0.00000  Uiso   1.00
C91    C     0.39492   0.10511   0.74999   0.00000  Uiso   1.00
C92    C     0.89478   0.39497   0.24984   0.00000  Uiso   1.00
C93    C     0.10514   0.60510   0.75007   0.00000  Uiso   1.00
C94    C     0.39493   0.10518   0.24996   0.00000  Uiso   1.00
C95    C     0.72955   0.22799   0.74914   0.00000  Uiso   1.00
C96    C     0.60510   0.89487   0.74998   0.00000  Uiso   1.00
C97    C     0.89488   0.60514   0.75002   0.00000  Uiso   1.00
C98    C     0.10522   0.39497   0.24984   0.00000  Uiso   1.00
C99    C     0.39497   0.89476   0.75010   0.00000  Uiso   1.00
C100   C     0.60506   0.10518   0.24997   0.00000  Uiso   1.00
C101   C     0.10513   0.39485   0.75002   0.00000  Uiso   1.00
C102   C     0.89493   0.60517   0.25004   0.00000  Uiso   1.00
C103   C     0.60521   0.10506   0.74987   0.00000  Uiso   1.00
C104   C     0.39478   0.89498   0.25015   0.00000  Uiso   1.00
C105   C     0.17569   0.25782   0.26232   0.00000  Uiso   1.00
C106   C     0.77242   0.72985   0.25071   0.00000  Uiso   1.00
C107   C     0.82565   0.74307   0.73879   0.00000  Uiso   1.00
C108   C     0.25680   0.82649   0.26437   0.00000  Uiso   1.00
C109   C     0.74339   0.17347   0.73735   0.00000  Uiso   1.00
C110   C     0.79931   0.71626   0.30364   0.00000  Uiso   1.00
C111   C     0.20412   0.28671   0.69643   0.00000  Uiso   1.00
C112   C     0.71455   0.20302   0.30246   0.00000  Uiso   1.00
C113   C     0.25760   0.82471   0.73887   0.00000  Uiso   1.00
C114   C     0.79971   0.28332   0.69665   0.00000  Uiso   1.00
C115   C     0.20088   0.71610   0.30369   0.00000  Uiso   1.00
C116   C     0.70079   0.78356   0.80273   0.00000  Uiso   1.00
C117   C     0.22883   0.27122   0.75002   0.00000  Uiso   1.00
C118   C     0.29928   0.21623   0.19635   0.00000  Uiso   1.00
C119   C     0.21645   0.70050   0.80344   0.00000  Uiso   1.00
C120   C     0.82431   0.25782   0.26231   0.00000  Uiso   1.00
C121   C     0.25846   0.17542   0.73181   0.00000  Uiso   1.00
C122   C     0.74323   0.82652   0.26423   0.00000  Uiso   1.00
C123   C     0.71635   0.79913   0.69728   0.00000  Uiso   1.00
C124   C     0.28546   0.20302   0.30246   0.00000  Uiso   1.00
C125   C     0.78473   0.29781   0.80237   0.00000  Uiso   1.00
C126   C     0.21441   0.70315   0.19749   0.00000  Uiso   1.00
C127   C     0.32457   0.24171   0.76815   0.00000  Uiso   1.00
C128   C     0.72757   0.22986   0.24929   0.00000  Uiso   1.00
C129   C     0.67569   0.75781   0.23773   0.00000  Uiso   1.00
C130   C     0.20237   0.71512   0.69759   0.00000  Uiso   1.00
C131   C     0.75678   0.32651   0.23572   0.00000  Uiso   1.00
C132   C     0.32429   0.75784   0.23756   0.00000  Uiso   1.00
C133   C     0.67532   0.24256   0.76090   0.00000  Uiso   1.00
C134   C     0.24322   0.32651   0.23572   0.00000  Uiso   1.00
C135   C     0.75704   0.67422   0.76134   0.00000  Uiso   1.00
C136   C     0.70070   0.21624   0.19635   0.00000  Uiso   1.00
C137   C     0.32643   0.75648   0.76273   0.00000  Uiso   1.00
C138   C     0.78543   0.70299   0.19754   0.00000  Uiso   1.00
C139   C     0.27204   0.77041   0.75082   0.00000  Uiso   1.00
C140   C     0.21329   0.29590   0.80363   0.00000  Uiso   1.00
C141   C     0.13447   0.29780   0.26343   0.00000  Uiso   1.00
C142   C     0.86674   0.70288   0.73809   0.00000  Uiso   1.00
C143   C     0.29731   0.86732   0.26486   0.00000  Uiso   1.00
C144   C     0.70294   0.13260   0.73682   0.00000  Uiso   1.00
C145   C     0.84007   0.67572   0.30412   0.00000  Uiso   1.00
C146   C     0.16283   0.32667   0.69576   0.00000  Uiso   1.00
C147   C     0.67483   0.16149   0.30333   0.00000  Uiso   1.00
C148   C     0.29760   0.86594   0.73790   0.00000  Uiso   1.00
C149   C     0.84049   0.32383   0.69613   0.00000  Uiso   1.00
C150   C     0.77226   0.27036   0.74942   0.00000  Uiso   1.00
C151   C     0.16013   0.67555   0.30417   0.00000  Uiso   1.00
C152   C     0.65967   0.82372   0.80337   0.00000  Uiso   1.00
C153   C     0.34004   0.17569   0.19588   0.00000  Uiso   1.00
C154   C     0.17588   0.65978   0.80400   0.00000  Uiso   1.00
C155   C     0.86554   0.29780   0.26342   0.00000  Uiso   1.00
C156   C     0.29882   0.13452   0.73075   0.00000  Uiso   1.00
C157   C     0.70272   0.86734   0.26473   0.00000  Uiso   1.00
C158   C     0.67616   0.84023   0.69660   0.00000  Uiso   1.00
C159   C     0.32518   0.16149   0.30333   0.00000  Uiso   1.00
C160   C     0.82456   0.33924   0.80321   0.00000  Uiso   1.00
F1     F     0.16386   0.20465   0.27491   0.00000  Uiso   1.00
F2     F     0.21472   0.74281   0.35464   0.00000  Uiso   1.00
F3     F     0.71382   0.75575   0.85323   0.00000  Uiso   1.00
F4     F     0.28557   0.24306   0.14543   0.00000  Uiso   1.00
F5     F     0.24373   0.71383   0.85419   0.00000  Uiso   1.00
F6     F     0.83615   0.20464   0.27489   0.00000  Uiso   1.00
F7     F     0.20633   0.16393   0.71483   0.00000  Uiso   1.00
F8     F     0.79614   0.83914   0.27683   0.00000  Uiso   1.00
F9     F     0.74417   0.78611   0.64680   0.00000  Uiso   1.00
F10    F     0.25863   0.21731   0.35317   0.00000  Uiso   1.00
F11    F     0.75727   0.28417   0.85290   0.00000  Uiso   1.00
F12    F     0.83806   0.79645   0.72803   0.00000  Uiso   1.00
F13    F     0.24112   0.71754   0.14675   0.00000  Uiso   1.00
F14    F     0.33596   0.29393   0.78516   0.00000  Uiso   1.00
F15    F     0.66384   0.70462   0.22518   0.00000  Uiso   1.00
F16    F     0.21621   0.74239   0.64699   0.00000  Uiso   1.00
F17    F     0.70387   0.33912   0.22309   0.00000  Uiso   1.00
F18    F     0.33611   0.70468   0.22486   0.00000  Uiso   1.00
F19    F     0.66324   0.29594   0.77212   0.00000  Uiso   1.00
F20    F     0.29612   0.33912   0.22308   0.00000  Uiso   1.00
F21    F     0.70377   0.66168   0.77208   0.00000  Uiso   1.00
F22    F     0.71440   0.24306   0.14543   0.00000  Uiso   1.00
F23    F     0.20392   0.83907   0.27712   0.00000  Uiso   1.00
F24    F     0.33905   0.70329   0.77421   0.00000  Uiso   1.00
F25    F     0.75857   0.71724   0.14684   0.00000  Uiso   1.00
F26    F     0.23797   0.27982   0.85500   0.00000  Uiso   1.00
F27    F     0.79652   0.16072   0.72605   0.00000  Uiso   1.00
F28    F     0.78563   0.74311   0.35456   0.00000  Uiso   1.00
F29    F     0.22024   0.26206   0.64504   0.00000  Uiso   1.00
F30    F     0.74140   0.21730   0.35317   0.00000  Uiso   1.00
F31    F     0.20434   0.83688   0.72750   0.00000  Uiso   1.00
F32    F     0.78654   0.25588   0.64594   0.00000  Uiso   1.00
H1     H     0.04856   0.31379   0.29361   0.00000  Uiso   1.00
H2     H     0.09217   0.64022   0.35958   0.00000  Uiso   1.00
H3     H     0.59079   0.85801   0.85823   0.00000  Uiso   1.00
H4     H     0.40809   0.14037   0.14059   0.00000  Uiso   1.00
H5     H     0.14060   0.59156   0.85919   0.00000  Uiso   1.00
H6     H     0.95145   0.31378   0.29359   0.00000  Uiso   1.00
H7     H     0.31769   0.04976   0.69821   0.00000  Uiso   1.00
H8     H     0.68565   0.95445   0.29144   0.00000  Uiso   1.00
H9     H     0.64179   0.90910   0.64167   0.00000  Uiso   1.00
H10    H     0.35889   0.09286   0.35906   0.00000  Uiso   1.00
H11    H     0.85833   0.40812   0.85857   0.00000  Uiso   1.00
H12    H     0.95405   0.68735   0.71157   0.00000  Uiso   1.00
H13    H     0.14094   0.59307   0.14078   0.00000  Uiso   1.00
H14    H     0.45024   0.18261   0.80146   0.00000  Uiso   1.00
H15    H     0.54853   0.81374   0.20648   0.00000  Uiso   1.00
H16    H     0.09213   0.64166   0.64133   0.00000  Uiso   1.00
H17    H     0.81438   0.45442   0.20850   0.00000  Uiso   1.00
H18    H     0.45140   0.81384   0.20623   0.00000  Uiso   1.00
H19    H     0.54756   0.18731   0.79039   0.00000  Uiso   1.00
H20    H     0.18562   0.45443   0.20851   0.00000  Uiso   1.00
H21    H     0.81295   0.54577   0.78868   0.00000  Uiso   1.00
H22    H     0.59187   0.14038   0.14060   0.00000  Uiso   1.00
H23    H     0.31442   0.95441   0.29160   0.00000  Uiso   1.00
H24    H     0.45455   0.81329   0.78945   0.00000  Uiso   1.00
H25    H     0.85885   0.59281   0.14095   0.00000  Uiso   1.00
H26    H     0.13841   0.40441   0.86114   0.00000  Uiso   1.00
H27    H     0.68651   0.04528   0.71050   0.00000  Uiso   1.00
H28    H     0.90814   0.64041   0.35940   0.00000  Uiso   1.00
H29    H     0.09552   0.36136   0.63897   0.00000  Uiso   1.00
H30    H     0.64112   0.09286   0.35907   0.00000  Uiso   1.00
H31    H     0.31305   0.95249   0.70913   0.00000  Uiso   1.00
H32    H     0.90885   0.35895   0.64113   0.00000  Uiso   1.00
O1     O     0.00000   0.50000   0.25000   0.00000  Uiso   1.00
O2     O     0.00000   0.45454   0.88202   0.00000  Uiso   1.00
O3     O     0.54546   0.00000   0.11798   0.00000  Uiso   1.00
O4     O     0.45454   0.00000   0.88202   0.00000  Uiso   1.00
O5     O     0.50000   0.95454   0.61798   0.00000  Uiso   1.00
O6     O     0.50000   0.04546   0.38202   0.00000  Uiso   1.00
O7     O     0.95454   0.50000   0.61798   0.00000  Uiso   1.00
O8     O     0.04546   0.50000   0.38202   0.00000  Uiso   1.00
O9     O     0.50000   0.04546   0.61798   0.00000  Uiso   1.00
O10    O     0.50000   0.95454   0.38202   0.00000  Uiso   1.00
O11    O     0.04546   0.50000   0.61798   0.00000  Uiso   1.00
O12    O     0.00000   0.50000   0.75000   0.00000  Uiso   1.00
O13    O     0.95454   0.50000   0.38202   0.00000  Uiso   1.00
O14    O     0.06399   0.60947   0.21539   0.00000  Uiso   1.00
O15    O     0.93601   0.39053   0.78461   0.00000  Uiso   1.00
O16    O     0.60947   0.93601   0.21539   0.00000  Uiso   1.00
O17    O     0.39053   0.06399   0.78461   0.00000  Uiso   1.00
O18    O     0.93601   0.39053   0.21539   0.00000  Uiso   1.00
O19    O     0.06399   0.60947   0.78461   0.00000  Uiso   1.00
O20    O     0.39053   0.06399   0.21539   0.00000  Uiso   1.00
O21    O     0.60947   0.93601   0.78461   0.00000  Uiso   1.00
O22    O     0.93601   0.60947   0.78461   0.00000  Uiso   1.00
O23    O     0.50000   0.00000   0.25000   0.00000  Uiso   1.00
O24    O     0.06399   0.39053   0.21539   0.00000  Uiso   1.00
O25    O     0.39053   0.93601   0.78461   0.00000  Uiso   1.00
O26    O     0.60947   0.06399   0.21539   0.00000  Uiso   1.00
O27    O     0.06399   0.39053   0.78461   0.00000  Uiso   1.00
O28    O     0.93601   0.60947   0.21539   0.00000  Uiso   1.00
O29    O     0.60947   0.06399   0.78461   0.00000  Uiso   1.00
O30    O     0.39053   0.93601   0.21539   0.00000  Uiso   1.00
O31    O     0.56399   0.10947   0.71539   0.00000  Uiso   1.00
O32    O     0.43601   0.89053   0.28461   0.00000  Uiso   1.00
O33    O     0.10947   0.43601   0.71539   0.00000  Uiso   1.00
O34    O     0.50000  -0.00000   0.75000   0.00000  Uiso   1.00
O35    O     0.89053   0.56399   0.28461   0.00000  Uiso   1.00
O36    O     0.43601   0.89053   0.71539   0.00000  Uiso   1.00
O37    O     0.56399   0.10947   0.28461   0.00000  Uiso   1.00
O38    O     0.89053   0.56399   0.71539   0.00000  Uiso   1.00
O39    O     0.10947   0.43601   0.28461   0.00000  Uiso   1.00
O40    O     0.43601   0.10947   0.28461   0.00000  Uiso   1.00
O41    O     0.56399   0.89053   0.71539   0.00000  Uiso   1.00
O42    O     0.89053   0.43601   0.28461   0.00000  Uiso   1.00
O43    O     0.10947   0.56399   0.71539   0.00000  Uiso   1.00
O44    O     0.56399   0.89053   0.28461   0.00000  Uiso   1.00
O45    O     0.00000   0.45454   0.11798   0.00000  Uiso   1.00
O46    O     0.43601   0.10947   0.71539   0.00000  Uiso   1.00
O47    O     0.10947   0.56399   0.28461   0.00000  Uiso   1.00
O48    O     0.89053   0.43601   0.71539   0.00000  Uiso   1.00
O49    O     0.06333   0.23470   0.28384   0.00000  Uiso   1.00
O50    O     0.93873   0.76619   0.72199   0.00000  Uiso   1.00
O51    O     0.23524   0.93929   0.28614   0.00000  Uiso   1.00
O52    O     0.76548   0.06019   0.71934   0.00000  Uiso   1.00
O53    O     0.85427   0.68042   0.40840   0.00000  Uiso   1.00
O54    O     0.15346   0.32656   0.59072   0.00000  Uiso   1.00
O55    O     0.68003   0.14789   0.40768   0.00000  Uiso   1.00
O56    O     0.00000   0.54546   0.88202   0.00000  Uiso   1.00
O57    O     0.23435   0.93782   0.72131   0.00000  Uiso   1.00
O58    O     0.85582   0.31782   0.59212   0.00000  Uiso   1.00
O59    O     0.14639   0.67980   0.40856   0.00000  Uiso   1.00
O60    O     0.64357   0.81649   0.90716   0.00000  Uiso   1.00
O61    O     0.35418   0.18034   0.09158   0.00000  Uiso   1.00
O62    O     0.18134   0.64497   0.90815   0.00000  Uiso   1.00
O63    O     0.93668   0.23469   0.28381   0.00000  Uiso   1.00
O64    O     0.23826   0.06474   0.69864   0.00000  Uiso   1.00
O65    O     0.76482   0.93937   0.28571   0.00000  Uiso   1.00
O66    O     0.68341   0.85633   0.59280   0.00000  Uiso   1.00
O67    O     0.45454   0.00000   0.11798   0.00000  Uiso   1.00
O68    O     0.32000   0.14790   0.40768   0.00000  Uiso   1.00
O69    O     0.81808   0.35415   0.90727   0.00000  Uiso   1.00
O70    O     0.17945   0.64838   0.09219   0.00000  Uiso   1.00
O71    O     0.43510   0.26212   0.80116   0.00000  Uiso   1.00
O72    O     0.56330   0.73466   0.21635   0.00000  Uiso   1.00
O73    O     0.14651   0.68126   0.59259   0.00000  Uiso   1.00
O74    O     0.73520   0.43934   0.21415   0.00000  Uiso   1.00
O75    O     0.43663   0.73474   0.21584   0.00000  Uiso   1.00
O76    O     0.56238   0.26607   0.77811   0.00000  Uiso   1.00
O77    O     0.26479   0.43934   0.21413   0.00000  Uiso   1.00
O78    O     0.54546   0.00000   0.88202   0.00000  Uiso   1.00
O79    O     0.73419   0.56093   0.77817   0.00000  Uiso   1.00
O80    O     0.64577   0.18034   0.09159   0.00000  Uiso   1.00
O81    O     0.43949   0.73420   0.78101   0.00000  Uiso   1.00
O82    O     0.81992   0.64781   0.09233   0.00000  Uiso   1.00
O83    O     0.17338   0.34649   0.90935   0.00000  Uiso   1.00
O84    O     0.00000   0.54546   0.11798   0.00000  Uiso   1.00
Zn1    Zn    0.06497   0.50000   0.29947   0.00000  Uiso   1.00
Zn2    Zn    0.43503  -0.00000   0.20053   0.00000  Uiso   1.00
Zn3    Zn    0.00000   0.43503   0.79947   0.00000  Uiso   1.00
Zn4    Zn    0.00000   0.56497   0.20053   0.00000  Uiso   1.00
Zn5    Zn    0.43503  -0.00000   0.79947   0.00000  Uiso   1.00
Zn6    Zn    0.56497  -0.00000   0.20053   0.00000  Uiso   1.00
Zn7    Zn    0.00000   0.56497   0.79947   0.00000  Uiso   1.00
Zn8    Zn    0.00000   0.43503   0.20053   0.00000  Uiso   1.00
Zn9    Zn    0.93503   0.50000   0.70053   0.00000  Uiso   1.00
Zn10   Zn    0.50000   0.93503   0.29947   0.00000  Uiso   1.00
Zn11   Zn    0.50000   0.06497   0.70053   0.00000  Uiso   1.00
Zn12   Zn    0.93503   0.50000   0.29947   0.00000  Uiso   1.00
Zn13   Zn    0.06497   0.50000   0.70053   0.00000  Uiso   1.00
Zn14   Zn    0.50000   0.06497   0.29947   0.00000  Uiso   1.00
Zn15   Zn    0.50000   0.93503   0.70053   0.00000  Uiso   1.00
Zn16   Zn    0.56497  -0.00000   0.79947   0.00000  Uiso   1.00
loop_
_geom_bond_atom_site_label_1
_geom_bond_atom_site_label_2
_geom_bond_distance
_geom_bond_site_symmetry_2
_ccdc_geom_bond_type
C1     C24     1.470   .     S
C1     C105    1.398   .     A
C1     C134    1.399   .     A
C2     C84     1.470   .     S
C2     C115    1.398   .     A
C2     C126    1.399   .     A
C3     C55     1.492   .     S
C3     C27     1.419   .     A
C3     C126    1.404   .     A
C4     C56     1.491   .     S
C4     C32     1.418   .     A
C4     C127    1.404   .     A
C5     C58     1.490   .     S
C5     C33     1.418   .     A
C5     C129    1.404   .     A
C6     C30     1.419   .     A
C6     C130    1.404   .     A
C6     C59     1.492   .     S
C7     C131    1.405   .     A
C7     C60     1.493   .     S
C7     C31     1.420   .     A
C8     C19     1.418   .     A
C8     C132    1.404   .     A
C8     C61     1.490   .     S
C9     C133    1.404   .     A
C9     C20     1.419   .     A
C9     C62     1.490   .     S
C10    C63     1.493   .     S
C10    C17     1.420   .     A
C10    C134    1.405   .     A
C11    C18     1.420   .     A
C11    C135    1.405   .     A
C11    C64     1.492   .     S
C12    C23     1.420   .     A
C12    C136    1.405   .     A
C12    C65     1.492   .     S
C13    C73     1.470   .     S
C13    C123    1.399   .     A
C13    C116    1.399   .     A
C14    C25     1.420   .     A
C14    C137    1.405   .     A
C14    C66     1.492   .     S
C15    C67     1.492   .     S
C15    C138    1.404   .     A
C15    C21     1.419   .     A
C16    C140    1.404   .     A
C16    C22     1.420   .     A
C16    C69     1.492   .     S
C17    C98     1.469   .     S
C17    C141    1.418   .     A
C18    C97     1.468   .     S
C18    C142    1.420   .     A
C19    C104    1.469   .     S
C19    C143    1.420   .     A
C20    C144    1.420   .     A
C20    C103    1.469   .     S
C21    C102    1.468   .     S
C21    C145    1.420   .     A
C22    C146    1.420   .     A
C22    C101    1.469   .     S
C23    C100    1.468   .     S
C23    C147    1.419   .     A
C24    C124    1.399   .     A
C24    C118    1.398   .     A
C25    C99     1.469   .     S
C25    C148    1.419   .     A
C26    C160    1.419   .     A
C26    C149    1.420   .     A
C26    C89     1.468   .     S
C27    C151    1.420   .     A
C27    C88     1.468   .     S
C28    C158    1.419   .     A
C28    C96     1.468   .     S
C28    C152    1.419   .     A
C29    C94     1.468   .     S
C29    C159    1.419   .     A
C29    C153    1.420   .     A
C30    C154    1.420   .     A
C30    C93     1.468   .     S
C31    C155    1.418   .     A
C31    C92     1.469   .     S
C32    C156    1.418   .     A
C32    C91     1.467   .     S
C33    C157    1.420   .     A
C33    C90     1.469   .     S
C34    O49     1.221   .     D
C34    C141    1.490   .     S
C34    H1      1.083   .     S
C35    C139    1.470   .     S
C35    C130    1.399   .     A
C35    C119    1.398   .     A
C36    C142    1.492   .     S
C36    O50     1.221   .     D
C36    H12     1.084   .     S
C37    C143    1.493   .     S
C37    H23     1.084   .     S
C37    O51     1.221   .     D
C38    H27     1.084   .     S
C38    C144    1.492   .     S
C38    O52     1.221   .     D
C39    C145    1.492   .     S
C39    H28     1.084   .     S
C39    O53     1.221   .     D
C40    H29     1.084   .     S
C40    C146    1.492   .     S
C40    O54     1.221   .     D
C41    H30     1.084   .     S
C41    O55     1.221   .     D
C41    C147    1.492   .     S
C42    O57     1.221   .     D
C42    H31     1.083   .     S
C42    C148    1.490   .     S
C43    C149    1.492   .     S
C43    O58     1.221   .     D
C43    H32     1.084   .     S
C44    O59     1.221   .     D
C44    H2      1.084   .     S
C44    C151    1.492   .     S
C45    O60     1.221   .     D
C45    C152    1.492   .     S
C45    H3      1.084   .     S
C46    C120    1.398   .     A
C46    C128    1.470   .     S
C46    C131    1.399   .     A
C47    C153    1.492   .     S
C47    H4      1.084   .     S
C47    O61     1.221   .     D
C48    C154    1.492   .     S
C48    O62     1.221   .     D
C48    H5      1.084   .     S
C49    C155    1.490   .     S
C49    H6      1.083   .     S
C49    O63     1.221   .     D
C50    H7      1.083   .     S
C50    O64     1.221   .     D
C50    C156    1.490   .     S
C51    C157    1.493   .     S
C51    O65     1.221   .     D
C51    H8      1.084   .     S
C52    H9      1.084   .     S
C52    C158    1.492   .     S
C52    O66     1.221   .     D
C53    C159    1.492   .     S
C53    H10     1.084   .     S
C53    O68     1.221   .     D
C54    H11     1.084   .     S
C54    C160    1.492   .     S
C54    O69     1.221   .     D
C55    O70     1.221   .     D
C55    H13     1.084   .     S
C56    H14     1.083   .     S
C56    O71     1.221   .     D
C57    C127    1.399   .     A
C57    C117    1.471   .     S
C57    C121    1.399   .     A
C58    O72     1.221   .     D
C58    H15     1.083   .     S
C59    H16     1.084   .     S
C59    O73     1.221   .     D
C60    H17     1.084   .     S
C60    O74     1.221   .     D
C61    H18     1.083   .     S
C61    O75     1.221   .     D
C62    O76     1.221   .     D
C62    H19     1.083   .     S
C63    H20     1.084   .     S
C63    O77     1.221   .     D
C64    O79     1.221   .     D
C64    H21     1.084   .     S
C65    O80     1.221   .     D
C65    H22     1.084   .     S
C66    H24     1.084   .     S
C66    O81     1.221   .     D
C67    H25     1.084   .     S
C67    O82     1.221   .     D
C68    C122    1.399   .     A
C68    C129    1.398   .     A
C68    C106    1.470   .     S
C69    H26     1.084   .     S
C69    O83     1.221   .     D
C70    C87     1.422   .     S
C70    C71     1.198   .     T
C71    C86     1.422   .     S
C72    C85     1.422   .     S
C72    C74     1.198   .     S
C73    C135    1.399   .     A
C73    C107    1.399   .     A
C74    C83     1.422   .     S
C75    C76     1.198   1_556 S
C75    C82     1.422   .     S
C76    C81     1.422   .     S
C76    C75     1.198   1_554 S
C77    C80     1.422   .     S
C77    C78     1.198   1_556 S
C78    C79     1.422   .     S
C78    C77     1.198   1_554 S
C79    O45     1.276   .     A
C79    O84     1.276   .     A
C80    O2      1.276   .     A
C80    O56     1.276   .     A
C81    O3      1.277   .     S
C81    O67     1.277   .     S
C82    O78     1.277   .     A
C82    O4      1.277   .     A
C83    O5      1.276   1_545 A
C83    O9      1.276   .     S
C84    C132    1.398   .     A
C84    C108    1.399   .     A
C85    O6      1.276   .     A
C85    O10     1.276   1_545 S
C86    O7      1.277   1_455 A
C86    O11     1.277   .     S
C87    O8      1.277   .     A
C87    O13     1.277   1_455 S
C88    O47     1.275   .     A
C88    O14     1.275   .     A
C89    O48     1.275   .     A
C89    O15     1.275   .     A
C90    O44     1.276   .     A
C90    O16     1.275   .     A
C91    O17     1.275   .     A
C91    O46     1.275   .     A
C92    O42     1.274   .     A
C92    O18     1.276   .     A
C93    O19     1.275   .     A
C93    O43     1.275   .     A
C94    O40     1.275   .     A
C94    O20     1.275   .     A
C95    C133    1.398   .     A
C95    C109    1.399   .     A
C95    C150    1.470   .     S
C96    O21     1.275   .     A
C96    O41     1.275   .     A
C97    O22     1.275   .     A
C97    O38     1.275   .     A
C98    O24     1.276   .     A
C98    O39     1.274   .     A
C99    O25     1.275   .     A
C99    O36     1.275   .     A
C100   O37     1.275   .     A
C100   O26     1.275   .     A
C101   O33     1.275   .     A
C101   O27     1.275   .     A
C102   O28     1.275   .     A
C102   O35     1.275   .     A
C103   O31     1.276   .     A
C103   O29     1.275   .     A
C104   O30     1.274   .     A
C104   O32     1.276   .     A
C105   F1      1.360   .     S
C105   C141    1.403   .     A
C106   C138    1.399   .     A
C106   C110    1.398   .     A
C107   F12     1.360   .     S
C107   C142    1.405   .     A
C108   F23     1.360   .     S
C108   C143    1.405   .     A
C109   C144    1.405   .     A
C109   F27     1.360   .     S
C110   C145    1.405   .     A
C110   F28     1.360   .     S
C111   C146    1.404   .     A
C111   C117    1.399   .     A
C111   F29     1.360   .     S
C112   C147    1.404   .     A
C112   F30     1.360   .     S
C112   C128    1.399   .     A
C113   C148    1.404   .     A
C113   C139    1.398   .     A
C113   F31     1.360   .     S
C114   F32     1.360   .     S
C114   C150    1.398   .     A
C114   C149    1.405   .     A
C115   C151    1.405   .     A
C115   F2      1.360   .     S
C116   F3      1.360   .     S
C116   C152    1.405   .     A
C117   C140    1.399   .     A
C118   F4      1.360   .     S
C118   C153    1.405   .     A
C119   F5      1.360   .     S
C119   C154    1.405   .     A
C120   F6      1.360   .     S
C120   C155    1.404   .     A
C121   C156    1.404   .     A
C121   F7      1.360   .     S
C122   F8      1.360   .     S
C122   C157    1.405   .     A
C123   F9      1.360   .     S
C123   C158    1.405   .     A
C124   C159    1.404   .     A
C124   F10     1.360   .     S
C125   F11     1.360   .     S
C125   C160    1.404   .     A
C125   C150    1.399   .     A
C126   F13     1.360   .     S
C127   F14     1.360   .     S
C128   C136    1.398   .     A
C129   F15     1.360   .     S
C130   F16     1.360   .     S
C131   F17     1.360   .     S
C132   F18     1.360   .     S
C133   F19     1.360   .     S
C134   F20     1.360   .     S
C135   F21     1.360   .     S
C136   F22     1.360   .     S
C137   F24     1.360   .     S
C137   C139    1.399   .     A
C138   F25     1.360   .     S
C140   F26     1.360   .     S
O1     Zn1     1.939   .     S
O1     Zn4     1.937   .     S
O1     Zn8     1.937   .     S
O1     Zn12    1.939   1_455 S
O2     Zn3     1.914   .     S
O3     Zn6     1.914   .     S
O4     Zn5     1.914   .     S
O5     C83     1.276   1_565 A
O5     Zn15    1.914   .     S
O6     Zn14    1.914   .     S
O7     C86     1.277   1_655 A
O7     Zn9     1.914   .     S
O8     Zn1     1.914   .     S
O9     Zn11    1.914   .     S
O10    Zn10    1.914   .     S
O10    C85     1.276   1_565 S
O11    Zn13    1.914   .     S
O12    Zn3     1.937   .     S
O12    Zn7     1.937   .     S
O12    Zn13    1.939   .     S
O12    Zn9     1.939   1_455 S
O13    Zn12    1.914   .     S
O13    C87     1.277   1_655 S
O14    Zn4     1.934   .     S
O15    Zn3     1.934   1_655 S
O16    Zn6     1.933   1_565 S
O17    Zn5     1.933   .     S
O18    Zn8     1.934   1_655 S
O19    Zn7     1.934   .     S
O20    Zn2     1.933   .     S
O21    Zn16    1.933   1_565 S
O22    Zn7     1.934   1_655 S
O23    Zn10    1.937   1_545 S
O23    Zn2     1.939   .     S
O23    Zn6     1.939   .     S
O23    Zn14    1.937   .     S
O24    Zn8     1.934   .     S
O25    Zn5     1.933   1_565 S
O26    Zn6     1.933   .     S
O27    Zn3     1.934   .     S
O28    Zn4     1.934   1_655 S
O29    Zn16    1.933   .     S
O30    Zn2     1.933   1_565 S
O31    Zn11    1.934   .     S
O32    Zn10    1.934   .     S
O33    Zn13    1.933   .     S
O34    Zn5     1.939   .     S
O34    Zn16    1.939   .     S
O34    Zn11    1.937   .     S
O34    Zn15    1.937   1_545 S
O35    Zn12    1.933   .     S
O36    Zn15    1.934   .     S
O37    Zn14    1.934   .     S
O38    Zn9     1.933   .     S
O39    Zn1     1.933   .     S
O40    Zn14    1.934   .     S
O41    Zn15    1.934   .     S
O42    Zn12    1.933   .     S
O43    Zn13    1.933   .     S
O44    Zn10    1.934   .     S
O45    Zn8     1.914   .     S
O46    Zn11    1.934   .     S
O47    Zn1     1.933   .     S
O48    Zn9     1.933   .     S
O56    Zn7     1.914   .     S
O67    Zn2     1.914   .     S
O78    Zn16    1.914   .     S
O84    Zn4     1.914   .     S
Zn2    O30     1.933   1_545 S
Zn3    O15     1.934   1_455 S
Zn4    O28     1.934   1_455 S
Zn5    O25     1.933   1_545 S
Zn6    O16     1.933   1_545 S
Zn7    O22     1.934   1_455 S
Zn8    O18     1.934   1_455 S
Zn9    O12     1.939   1_655 S
Zn10   O23     1.937   1_565 S
Zn12   O1      1.939   1_655 S
Zn15   O34     1.937   1_565 S
Zn16   O21     1.933   1_545 S
