data_str_m1_o2_o5_pcu_sym.22
_audit_creation_date              2020-01-03
_audit_creation_method            'Materials Studio'
_symmetry_space_group_name_H-M    'P1'
_symmetry_Int_Tables_number       1
_symmetry_cell_setting            triclinic
loop_
_symmetry_equiv_pos_as_xyz
  x,y,z
_cell_length_a                    24.4363
_cell_length_b                    24.4363
_cell_length_c                    22.4568
_cell_angle_alpha                 90.0001
_cell_angle_beta                  90.0001
_cell_angle_gamma                 90.0001
loop_
_atom_site_label
_atom_site_type_symbol
_atom_site_fract_x
_atom_site_fract_y
_atom_site_fract_z
_atom_site_U_iso_or_equiv
_atom_site_adp_type
_atom_site_occupancy
C1     C     0.22865   0.27135   0.25000   0.00000  Uiso   1.00
C2     C     0.22865   0.72865   0.25000   0.00000  Uiso   1.00
C3     C     0.20173   0.63388   0.26359   0.00000  Uiso   1.00
C4     C     0.34138   0.17699   0.69794   0.00000  Uiso   1.00
C5     C     0.63388   0.79827   0.26360   0.00000  Uiso   1.00
C6     C     0.17696   0.65865   0.69792   0.00000  Uiso   1.00
C7     C     0.79827   0.36612   0.26360   0.00000  Uiso   1.00
C8     C     0.34135   0.82304   0.30208   0.00000  Uiso   1.00
C9     C     0.63388   0.20173   0.73641   0.00000  Uiso   1.00
C10    C     0.17695   0.34134   0.30208   0.00000  Uiso   1.00
C11    C     0.79827   0.63388   0.73640   0.00000  Uiso   1.00
C12    C     0.65865   0.17696   0.30208   0.00000  Uiso   1.00
C13    C     0.72865   0.77135   0.75000   0.00000  Uiso   1.00
C14    C     0.36612   0.79827   0.73641   0.00000  Uiso   1.00
C15    C     0.82304   0.65865   0.30208   0.00000  Uiso   1.00
C16    C     0.20174   0.36613   0.73645   0.00000  Uiso   1.00
C17    C     0.14755   0.35245   0.25000   0.00000  Uiso   1.00
C18    C     0.85245   0.64755   0.75000   0.00000  Uiso   1.00
C19    C     0.35245   0.85245   0.25000   0.00000  Uiso   1.00
C20    C     0.64755   0.14755   0.75000   0.00000  Uiso   1.00
C21    C     0.85245   0.64755   0.25000   0.00000  Uiso   1.00
C22    C     0.14755   0.35245   0.75000   0.00000  Uiso   1.00
C23    C     0.64755   0.14755   0.25000   0.00000  Uiso   1.00
C24    C     0.27135   0.22865   0.25000   0.00000  Uiso   1.00
C25    C     0.35245   0.85245   0.75000   0.00000  Uiso   1.00
C26    C     0.85245   0.35245   0.75000   0.00000  Uiso   1.00
C27    C     0.14755   0.64755   0.25000   0.00000  Uiso   1.00
C28    C     0.64755   0.85245   0.75000   0.00000  Uiso   1.00
C29    C     0.35245   0.14755   0.25000   0.00000  Uiso   1.00
C30    C     0.14755   0.64755   0.75000   0.00000  Uiso   1.00
C31    C     0.85245   0.35245   0.25000   0.00000  Uiso   1.00
C32    C     0.35245   0.14755   0.75000   0.00000  Uiso   1.00
C33    C     0.64755   0.85245   0.25000   0.00000  Uiso   1.00
C34    C     0.22865   0.72865   0.75000   0.00000  Uiso   1.00
C35    C     0.77135   0.27135   0.25000   0.00000  Uiso   1.00
C36    C     0.27135   0.22865   0.75000   0.00000  Uiso   1.00
C37    C     0.72865   0.77135   0.25000   0.00000  Uiso   1.00
C38    C     0.00000   0.50000   0.47332   0.00000  Uiso   1.00
C39    C    -0.00000   0.50000   0.52668   0.00000  Uiso   1.00
C40    C     0.50000   0.00000   0.47332   0.00000  Uiso   1.00
C41    C     0.77135   0.72865   0.75000   0.00000  Uiso   1.00
C42    C     0.50000   0.00000   0.52668   0.00000  Uiso   1.00
C43    C     0.50000   0.00000   0.97332   0.00000  Uiso   1.00
C44    C     0.50000   0.00000   0.02668   0.00000  Uiso   1.00
C45    C     0.00000   0.50000   0.97332   0.00000  Uiso   1.00
C46    C    -0.00000   0.50000   0.02668   0.00000  Uiso   1.00
C47    C    -0.00000   0.50000   0.09000   0.00000  Uiso   1.00
C48    C     0.00000   0.50000   0.91000   0.00000  Uiso   1.00
C49    C     0.50000   0.00000   0.09000   0.00000  Uiso   1.00
C50    C     0.50000   0.00000   0.91000   0.00000  Uiso   1.00
C51    C     0.50000   0.00000   0.59000   0.00000  Uiso   1.00
C52    C     0.27135   0.77135   0.25000   0.00000  Uiso   1.00
C53    C     0.50000   0.00000   0.41000   0.00000  Uiso   1.00
C54    C    -0.00000   0.50000   0.59000   0.00000  Uiso   1.00
C55    C    -0.00000   0.50000   0.41000   0.00000  Uiso   1.00
C56    C     0.10519   0.60520   0.25000   0.00000  Uiso   1.00
C57    C     0.89480   0.39481   0.75000   0.00000  Uiso   1.00
C58    C     0.60519   0.89481   0.25000   0.00000  Uiso   1.00
C59    C     0.39480   0.10520   0.75000   0.00000  Uiso   1.00
C60    C     0.89480   0.39481   0.25000   0.00000  Uiso   1.00
C61    C     0.10519   0.60519   0.75000   0.00000  Uiso   1.00
C62    C     0.39480   0.10520   0.25000   0.00000  Uiso   1.00
C63    C     0.72865   0.22865   0.75000   0.00000  Uiso   1.00
C64    C     0.60519   0.89481   0.75000   0.00000  Uiso   1.00
C65    C     0.89480   0.60520   0.75000   0.00000  Uiso   1.00
C66    C     0.10519   0.39481   0.25000   0.00000  Uiso   1.00
C67    C     0.39480   0.89481   0.75000   0.00000  Uiso   1.00
C68    C     0.60519   0.10519   0.25000   0.00000  Uiso   1.00
C69    C     0.10519   0.39481   0.75000   0.00000  Uiso   1.00
C70    C     0.89481   0.60519   0.25000   0.00000  Uiso   1.00
C71    C     0.60519   0.10520   0.75000   0.00000  Uiso   1.00
C72    C     0.39480   0.89481   0.25000   0.00000  Uiso   1.00
C73    C     0.19975   0.28295   0.19720   0.00000  Uiso   1.00
C74    C     0.77135   0.72865   0.25000   0.00000  Uiso   1.00
C75    C     0.82598   0.74279   0.76283   0.00000  Uiso   1.00
C76    C     0.28294   0.80026   0.19720   0.00000  Uiso   1.00
C77    C     0.74279   0.17401   0.76283   0.00000  Uiso   1.00
C78    C     0.80026   0.71706   0.19720   0.00000  Uiso   1.00
C79    C     0.17400   0.25720   0.76278   0.00000  Uiso   1.00
C80    C     0.71706   0.19974   0.19720   0.00000  Uiso   1.00
C81    C     0.25721   0.82599   0.76283   0.00000  Uiso   1.00
C82    C     0.80026   0.28294   0.80280   0.00000  Uiso   1.00
C83    C     0.17401   0.74279   0.23717   0.00000  Uiso   1.00
C84    C     0.71705   0.80025   0.80280   0.00000  Uiso   1.00
C85    C     0.22865   0.27135   0.75000   0.00000  Uiso   1.00
C86    C     0.25721   0.17402   0.23717   0.00000  Uiso   1.00
C87    C     0.19974   0.71706   0.80280   0.00000  Uiso   1.00
C88    C     0.82599   0.25721   0.23717   0.00000  Uiso   1.00
C89    C     0.28291   0.19971   0.80278   0.00000  Uiso   1.00
C90    C     0.74279   0.82599   0.23717   0.00000  Uiso   1.00
C91    C     0.69975   0.78295   0.69720   0.00000  Uiso   1.00
C92    C     0.32598   0.24279   0.26283   0.00000  Uiso   1.00
C93    C     0.78294   0.30026   0.69720   0.00000  Uiso   1.00
C94    C     0.24279   0.67401   0.26283   0.00000  Uiso   1.00
C95    C     0.30029   0.21709   0.69722   0.00000  Uiso   1.00
C96    C     0.72865   0.22865   0.25000   0.00000  Uiso   1.00
C97    C     0.67401   0.75721   0.26283   0.00000  Uiso   1.00
C98    C     0.21706   0.69974   0.69720   0.00000  Uiso   1.00
C99    C     0.75721   0.32599   0.26283   0.00000  Uiso   1.00
C100   C     0.30026   0.78294   0.30280   0.00000  Uiso   1.00
C101   C     0.67401   0.24279   0.73717   0.00000  Uiso   1.00
C102   C     0.21705   0.30025   0.30280   0.00000  Uiso   1.00
C103   C     0.75721   0.67402   0.73717   0.00000  Uiso   1.00
C104   C     0.69974   0.21706   0.30280   0.00000  Uiso   1.00
C105   C     0.32599   0.75721   0.73717   0.00000  Uiso   1.00
C106   C     0.78294   0.69974   0.30280   0.00000  Uiso   1.00
C107   C     0.27135   0.77135   0.75000   0.00000  Uiso   1.00
C108   C     0.24280   0.32600   0.73722   0.00000  Uiso   1.00
C109   C     0.15865   0.32305   0.19792   0.00000  Uiso   1.00
C110   C     0.86612   0.70173   0.76360   0.00000  Uiso   1.00
C111   C     0.32304   0.84135   0.19792   0.00000  Uiso   1.00
C112   C     0.70173   0.13388   0.76359   0.00000  Uiso   1.00
C113   C     0.84135   0.67696   0.19792   0.00000  Uiso   1.00
C114   C     0.13387   0.29826   0.76355   0.00000  Uiso   1.00
C115   C     0.67696   0.15865   0.19792   0.00000  Uiso   1.00
C116   C     0.29827   0.86612   0.76359   0.00000  Uiso   1.00
C117   C     0.84135   0.32304   0.80208   0.00000  Uiso   1.00
C118   C     0.77135   0.27135   0.75000   0.00000  Uiso   1.00
C119   C     0.13388   0.70173   0.23641   0.00000  Uiso   1.00
C120   C     0.67695   0.84135   0.80208   0.00000  Uiso   1.00
C121   C     0.29827   0.13388   0.23640   0.00000  Uiso   1.00
C122   C     0.15865   0.67696   0.80208   0.00000  Uiso   1.00
C123   C     0.86612   0.29827   0.23641   0.00000  Uiso   1.00
C124   C     0.32301   0.15862   0.80207   0.00000  Uiso   1.00
C125   C     0.70173   0.86612   0.23640   0.00000  Uiso   1.00
C126   C     0.65865   0.82305   0.69792   0.00000  Uiso   1.00
C127   C     0.36612   0.20173   0.26360   0.00000  Uiso   1.00
C128   C     0.82304   0.34135   0.69792   0.00000  Uiso   1.00
H1     H     0.13613   0.33213   0.15754   0.00000  Uiso   1.00
H2     H     0.09178   0.71223   0.22644   0.00000  Uiso   1.00
H3     H     0.66787   0.86387   0.84246   0.00000  Uiso   1.00
H4     H     0.28777   0.09178   0.22643   0.00000  Uiso   1.00
H5     H     0.13612   0.66788   0.84245   0.00000  Uiso   1.00
H6     H     0.90822   0.28777   0.22644   0.00000  Uiso   1.00
H7     H     0.33206   0.13607   0.84243   0.00000  Uiso   1.00
H8     H     0.71223   0.90822   0.22644   0.00000  Uiso   1.00
H9     H     0.63613   0.83213   0.65754   0.00000  Uiso   1.00
H10    H     0.40822   0.21223   0.27357   0.00000  Uiso   1.00
H11    H     0.83212   0.36388   0.65755   0.00000  Uiso   1.00
H12    H     0.90822   0.71223   0.77357   0.00000  Uiso   1.00
H13    H     0.21223   0.59178   0.27356   0.00000  Uiso   1.00
H14    H     0.36393   0.16794   0.65757   0.00000  Uiso   1.00
H15    H     0.59178   0.78777   0.27356   0.00000  Uiso   1.00
H16    H     0.16788   0.63612   0.65755   0.00000  Uiso   1.00
H17    H     0.78777   0.40822   0.27356   0.00000  Uiso   1.00
H18    H     0.36388   0.83212   0.34245   0.00000  Uiso   1.00
H19    H     0.59178   0.21223   0.72644   0.00000  Uiso   1.00
H20    H     0.16787   0.36387   0.34246   0.00000  Uiso   1.00
H21    H     0.78777   0.59178   0.72644   0.00000  Uiso   1.00
H22    H     0.63612   0.16788   0.34245   0.00000  Uiso   1.00
H23    H     0.33212   0.86388   0.15755   0.00000  Uiso   1.00
H24    H     0.40822   0.78777   0.72644   0.00000  Uiso   1.00
H25    H     0.83212   0.63613   0.34246   0.00000  Uiso   1.00
H26    H     0.21224   0.40824   0.72653   0.00000  Uiso   1.00
H27    H     0.18893   0.26815   0.11282   0.00000  Uiso   1.00
H28    H     0.87893   0.79973   0.78178   0.00000  Uiso   1.00
H29    H     0.26812   0.81109   0.11283   0.00000  Uiso   1.00
H30    H     0.79973   0.12106   0.78177   0.00000  Uiso   1.00
H31    H     0.81107   0.73186   0.11283   0.00000  Uiso   1.00
H32    H     0.12104   0.20025   0.78164   0.00000  Uiso   1.00
H33    H     0.73187   0.18892   0.11283   0.00000  Uiso   1.00
H34    H     0.71223   0.09178   0.77356   0.00000  Uiso   1.00
H35    H     0.20027   0.87894   0.78177   0.00000  Uiso   1.00
H36    H     0.81109   0.26813   0.88717   0.00000  Uiso   1.00
H37    H     0.12106   0.79973   0.21823   0.00000  Uiso   1.00
H38    H     0.73186   0.81107   0.88718   0.00000  Uiso   1.00
H39    H     0.20027   0.12107   0.21821   0.00000  Uiso   1.00
H40    H     0.18891   0.73188   0.88717   0.00000  Uiso   1.00
H41    H     0.87894   0.20027   0.21823   0.00000  Uiso   1.00
H42    H     0.26804   0.18883   0.88714   0.00000  Uiso   1.00
H43    H     0.79973   0.87894   0.21822   0.00000  Uiso   1.00
H44    H     0.68893   0.76814   0.61282   0.00000  Uiso   1.00
H45    H     0.86387   0.66788   0.15755   0.00000  Uiso   1.00
H46    H     0.37893   0.29973   0.28179   0.00000  Uiso   1.00
H47    H     0.76812   0.31109   0.61283   0.00000  Uiso   1.00
H48    H     0.29973   0.62106   0.28177   0.00000  Uiso   1.00
H49    H     0.31117   0.23196   0.61286   0.00000  Uiso   1.00
H50    H     0.62106   0.70027   0.28178   0.00000  Uiso   1.00
H51    H     0.23187   0.68891   0.61283   0.00000  Uiso   1.00
H52    H     0.70027   0.37894   0.28177   0.00000  Uiso   1.00
H53    H     0.31109   0.76813   0.38717   0.00000  Uiso   1.00
H54    H     0.62106   0.29973   0.71823   0.00000  Uiso   1.00
H55    H     0.23185   0.31107   0.38718   0.00000  Uiso   1.00
H56    H     0.09176   0.28776   0.77347   0.00000  Uiso   1.00
H57    H     0.70027   0.62107   0.71822   0.00000  Uiso   1.00
H58    H     0.68892   0.23187   0.38717   0.00000  Uiso   1.00
H59    H     0.37894   0.70027   0.71823   0.00000  Uiso   1.00
H60    H     0.76813   0.68892   0.38717   0.00000  Uiso   1.00
H61    H     0.29975   0.37896   0.71836   0.00000  Uiso   1.00
H62    H     0.66788   0.13612   0.15755   0.00000  Uiso   1.00
H63    H     0.28777   0.90822   0.77356   0.00000  Uiso   1.00
H64    H     0.86388   0.33212   0.84245   0.00000  Uiso   1.00
O1     O    -0.00000   0.50000   0.25000   0.00000  Uiso   1.00
O2     O    -0.00000   0.45454   0.88202   0.00000  Uiso   1.00
O3     O     0.54546   0.00000   0.11798   0.00000  Uiso   1.00
O4     O     0.45454   0.00000   0.88202   0.00000  Uiso   1.00
O5     O     0.50000   0.95454   0.61798   0.00000  Uiso   1.00
O6     O     0.50000   0.04546   0.38202   0.00000  Uiso   1.00
O7     O     0.95454   0.50000   0.61798   0.00000  Uiso   1.00
O8     O     0.04546   0.50000   0.38202   0.00000  Uiso   1.00
O9     O     0.50000   0.04546   0.61798   0.00000  Uiso   1.00
O10    O     0.50000   0.95454   0.38202   0.00000  Uiso   1.00
O11    O     0.04546   0.50000   0.61798   0.00000  Uiso   1.00
O12    O     0.00000   0.50000   0.75000   0.00000  Uiso   1.00
O13    O     0.95454   0.50000   0.38202   0.00000  Uiso   1.00
O14    O     0.06399   0.60947   0.21539   0.00000  Uiso   1.00
O15    O     0.93601   0.39053   0.78461   0.00000  Uiso   1.00
O16    O     0.60947   0.93601   0.21539   0.00000  Uiso   1.00
O17    O     0.39053   0.06399   0.78461   0.00000  Uiso   1.00
O18    O     0.93601   0.39053   0.21539   0.00000  Uiso   1.00
O19    O     0.06399   0.60947   0.78461   0.00000  Uiso   1.00
O20    O     0.39053   0.06399   0.21539   0.00000  Uiso   1.00
O21    O     0.60947   0.93601   0.78461   0.00000  Uiso   1.00
O22    O     0.93601   0.60947   0.78461   0.00000  Uiso   1.00
O23    O     0.50000   0.00000   0.25000   0.00000  Uiso   1.00
O24    O     0.06399   0.39053   0.21539   0.00000  Uiso   1.00
O25    O     0.39053   0.93601   0.78461   0.00000  Uiso   1.00
O26    O     0.60947   0.06399   0.21539   0.00000  Uiso   1.00
O27    O     0.06399   0.39053   0.78461   0.00000  Uiso   1.00
O28    O     0.93601   0.60947   0.21539   0.00000  Uiso   1.00
O29    O     0.60947   0.06399   0.78461   0.00000  Uiso   1.00
O30    O     0.39053   0.93601   0.21539   0.00000  Uiso   1.00
O31    O     0.56399   0.10947   0.71539   0.00000  Uiso   1.00
O32    O     0.43601   0.89053   0.28461   0.00000  Uiso   1.00
O33    O     0.10947   0.43601   0.71539   0.00000  Uiso   1.00
O34    O     0.50000   0.00000   0.75000   0.00000  Uiso   1.00
O35    O     0.89053   0.56399   0.28461   0.00000  Uiso   1.00
O36    O     0.43601   0.89053   0.71539   0.00000  Uiso   1.00
O37    O     0.56399   0.10947   0.28461   0.00000  Uiso   1.00
O38    O     0.89053   0.56399   0.71539   0.00000  Uiso   1.00
O39    O     0.10947   0.43601   0.28461   0.00000  Uiso   1.00
O40    O     0.43601   0.10947   0.28461   0.00000  Uiso   1.00
O41    O     0.56399   0.89053   0.71539   0.00000  Uiso   1.00
O42    O     0.89053   0.43601   0.28461   0.00000  Uiso   1.00
O43    O     0.10947   0.56399   0.71539   0.00000  Uiso   1.00
O44    O     0.56399   0.89053   0.28461   0.00000  Uiso   1.00
O45    O    -0.00000   0.45454   0.11798   0.00000  Uiso   1.00
O46    O     0.43601   0.10947   0.71539   0.00000  Uiso   1.00
O47    O     0.10947   0.56399   0.28461   0.00000  Uiso   1.00
O48    O     0.89053   0.43601   0.71539   0.00000  Uiso   1.00
O49    O     0.21289   0.25516   0.14555   0.00000  Uiso   1.00
O50    O     0.83915   0.79689   0.77363   0.00000  Uiso   1.00
O51    O     0.25515   0.78712   0.14555   0.00000  Uiso   1.00
O52    O     0.79689   0.16085   0.77362   0.00000  Uiso   1.00
O53    O     0.78711   0.74485   0.14555   0.00000  Uiso   1.00
O54    O     0.16083   0.20310   0.77352   0.00000  Uiso   1.00
O55    O     0.74485   0.21288   0.14555   0.00000  Uiso   1.00
O56    O    -0.00000   0.54546   0.88202   0.00000  Uiso   1.00
O57    O     0.20311   0.83915   0.77362   0.00000  Uiso   1.00
O58    O     0.78712   0.25515   0.85445   0.00000  Uiso   1.00
O59    O     0.16085   0.79689   0.22638   0.00000  Uiso   1.00
O60    O     0.74484   0.78711   0.85445   0.00000  Uiso   1.00
O61    O     0.20311   0.16085   0.22637   0.00000  Uiso   1.00
O62    O     0.21288   0.74485   0.85445   0.00000  Uiso   1.00
O63    O     0.83915   0.20311   0.22638   0.00000  Uiso   1.00
O64    O     0.25508   0.21282   0.85443   0.00000  Uiso   1.00
O65    O     0.79689   0.83915   0.22638   0.00000  Uiso   1.00
O66    O     0.71289   0.75516   0.64555   0.00000  Uiso   1.00
O67    O     0.45454   0.00000   0.11798   0.00000  Uiso   1.00
O68    O     0.33915   0.29689   0.27363   0.00000  Uiso   1.00
O69    O     0.75515   0.28712   0.64555   0.00000  Uiso   1.00
O70    O     0.29689   0.66085   0.27362   0.00000  Uiso   1.00
O71    O     0.28718   0.24492   0.64557   0.00000  Uiso   1.00
O72    O     0.66085   0.70311   0.27362   0.00000  Uiso   1.00
O73    O     0.24485   0.71288   0.64555   0.00000  Uiso   1.00
O74    O     0.70311   0.33915   0.27362   0.00000  Uiso   1.00
O75    O     0.28712   0.75515   0.35445   0.00000  Uiso   1.00
O76    O     0.66085   0.29689   0.72638   0.00000  Uiso   1.00
O77    O     0.24484   0.28711   0.35446   0.00000  Uiso   1.00
O78    O     0.54546   0.00000   0.88202   0.00000  Uiso   1.00
O79    O     0.70311   0.66085   0.72637   0.00000  Uiso   1.00
O80    O     0.71288   0.24485   0.35445   0.00000  Uiso   1.00
O81    O     0.33915   0.70311   0.72638   0.00000  Uiso   1.00
O82    O     0.75515   0.71289   0.35445   0.00000  Uiso   1.00
O83    O     0.29690   0.33917   0.72648   0.00000  Uiso   1.00
O84    O    -0.00000   0.54546   0.11798   0.00000  Uiso   1.00
Zn1    Zn    0.06497   0.50000   0.29947   0.00000  Uiso   1.00
Zn2    Zn    0.43503   0.00000   0.20053   0.00000  Uiso   1.00
Zn3    Zn    0.00000   0.43503   0.79947   0.00000  Uiso   1.00
Zn4    Zn   -0.00000   0.56497   0.20053   0.00000  Uiso   1.00
Zn5    Zn    0.43503   0.00000   0.79947   0.00000  Uiso   1.00
Zn6    Zn    0.56497   0.00000   0.20053   0.00000  Uiso   1.00
Zn7    Zn    0.00000   0.56497   0.79947   0.00000  Uiso   1.00
Zn8    Zn   -0.00000   0.43503   0.20053   0.00000  Uiso   1.00
Zn9    Zn    0.93503   0.50000   0.70053   0.00000  Uiso   1.00
Zn10   Zn    0.50000   0.93503   0.29947   0.00000  Uiso   1.00
Zn11   Zn    0.50000   0.06497   0.70053   0.00000  Uiso   1.00
Zn12   Zn    0.93503   0.50000   0.29947   0.00000  Uiso   1.00
Zn13   Zn    0.06497   0.50000   0.70053   0.00000  Uiso   1.00
Zn14   Zn    0.50000   0.06497   0.29947   0.00000  Uiso   1.00
Zn15   Zn    0.50000   0.93503   0.70053   0.00000  Uiso   1.00
Zn16   Zn    0.56497   0.00000   0.79947   0.00000  Uiso   1.00
loop_
_geom_bond_atom_site_label_1
_geom_bond_atom_site_label_2
_geom_bond_distance
_geom_bond_site_symmetry_2
_ccdc_geom_bond_type
C1     C73     1.409   .     A
C1     C24     1.475   .     S
C1     C102    1.409   .     A
C2     C83     1.409   .     A
C2     C94     1.409   .     A
C2     C52     1.475   .     S
C3     H13     1.084   .     S
C3     C27     1.399   .     A
C3     C94     1.403   .     A
C4     C32     1.399   .     A
C4     C95     1.403   .     A
C4     H14     1.084   .     S
C5     H15     1.084   .     S
C5     C33     1.399   .     A
C5     C97     1.403   .     A
C6     H16     1.084   .     S
C6     C30     1.399   .     A
C6     C98     1.403   .     A
C7     C99     1.403   .     A
C7     C31     1.399   .     A
C7     H17     1.084   .     S
C8     H18     1.084   .     S
C8     C19     1.399   .     A
C8     C100    1.403   .     A
C9     C20     1.399   .     A
C9     H19     1.084   .     S
C9     C101    1.403   .     A
C10    C17     1.399   .     A
C10    C102    1.403   .     A
C10    H20     1.084   .     S
C11    C18     1.399   .     A
C11    H21     1.084   .     S
C11    C103    1.403   .     A
C12    H22     1.084   .     S
C12    C23     1.399   .     A
C12    C104    1.403   .     A
C13    C41     1.475   .     S
C13    C84     1.409   .     A
C13    C91     1.409   .     A
C14    C105    1.403   .     A
C14    C25     1.399   .     A
C14    H24     1.084   .     S
C15    C106    1.403   .     A
C15    H25     1.084   .     S
C15    C21     1.399   .     A
C16    C108    1.403   .     A
C16    H26     1.084   .     S
C16    C22     1.399   .     A
C17    C66     1.464   .     S
C17    C109    1.399   .     A
C18    C65     1.464   .     S
C18    C110    1.399   .     A
C19    C111    1.399   .     A
C19    C72     1.464   .     S
C20    C112    1.399   .     A
C20    C71     1.464   .     S
C21    C113    1.399   .     A
C21    C70     1.464   .     S
C22    C69     1.464   .     S
C22    C114    1.399   .     A
C23    C68     1.464   .     S
C23    C115    1.399   .     A
C24    C92     1.409   .     A
C24    C86     1.409   .     A
C25    C116    1.399   .     A
C25    C67     1.464   .     S
C26    C117    1.399   .     A
C26    C128    1.399   .     A
C26    C57     1.464   .     S
C27    C56     1.464   .     S
C27    C119    1.399   .     A
C28    C64     1.464   .     S
C28    C126    1.399   .     A
C28    C120    1.399   .     A
C29    C62     1.464   .     S
C29    C121    1.399   .     A
C29    C127    1.399   .     A
C30    C122    1.399   .     A
C30    C61     1.464   .     S
C31    C123    1.399   .     A
C31    C60     1.464   .     S
C32    C124    1.399   .     A
C32    C59     1.464   .     S
C33    C58     1.464   .     S
C33    C125    1.399   .     A
C34    C107    1.475   .     S
C34    C98     1.409   .     A
C34    C87     1.409   .     A
C35    C96     1.475   .     S
C35    C99     1.409   .     A
C35    C88     1.409   .     A
C36    C89     1.409   .     A
C36    C85     1.475   .     S
C36    C95     1.409   .     A
C37    C74     1.475   .     S
C37    C90     1.409   .     A
C37    C97     1.409   .     A
C38    C39     1.198   .     S
C38    C55     1.422   .     S
C39    C54     1.422   .     S
C40    C53     1.422   .     S
C40    C42     1.198   .     S
C41    C103    1.409   .     A
C41    C75     1.409   .     A
C42    C51     1.422   .     S
C43    C50     1.422   .     S
C43    C44     1.198   1_556 S
C44    C49     1.422   .     S
C44    C43     1.198   1_554 S
C45    C48     1.422   .     S
C45    C46     1.198   1_556 S
C46    C47     1.422   .     S
C46    C45     1.198   1_554 S
C47    O84     1.276   .     A
C47    O45     1.276   .     A
C48    O2      1.276   .     S
C48    O56     1.276   .     S
C49    O3      1.276   .     A
C49    O67     1.276   .     A
C50    O4      1.276   .     S
C50    O78     1.276   .     S
C51    O5      1.276   1_545 A
C51    O9      1.276   .     S
C52    C76     1.409   .     A
C52    C100    1.409   .     A
C53    O6      1.276   .     A
C53    O10     1.276   1_545 S
C54    O7      1.276   1_455 A
C54    O11     1.276   .     S
C55    O13     1.276   1_455 A
C55    O8      1.276   .     S
C56    O47     1.276   .     A
C56    O14     1.276   .     A
C57    O15     1.276   .     A
C57    O48     1.276   .     A
C58    O44     1.276   .     A
C58    O16     1.276   .     A
C59    O46     1.276   .     A
C59    O17     1.276   .     A
C60    O42     1.276   .     A
C60    O18     1.276   .     A
C61    O19     1.276   .     A
C61    O43     1.276   .     A
C62    O40     1.276   .     A
C62    O20     1.276   .     A
C63    C101    1.409   .     A
C63    C118    1.475   .     S
C63    C77     1.409   .     A
C64    O41     1.276   .     A
C64    O21     1.276   .     A
C65    O38     1.276   .     A
C65    O22     1.276   .     A
C66    O24     1.276   .     A
C66    O39     1.276   .     A
C67    O25     1.276   .     A
C67    O36     1.276   .     A
C68    O26     1.276   .     A
C68    O37     1.276   .     A
C69    O27     1.276   .     A
C69    O33     1.276   .     A
C70    O28     1.276   .     A
C70    O35     1.276   .     A
C71    O31     1.276   .     A
C71    O29     1.276   .     A
C72    O30     1.276   .     A
C72    O32     1.276   .     A
C73    C109    1.403   .     A
C73    O49     1.382   .     S
C74    C106    1.409   .     A
C74    C78     1.409   .     A
C75    C110    1.403   .     A
C75    O50     1.382   .     S
C76    O51     1.382   .     S
C76    C111    1.403   .     A
C77    O52     1.382   .     S
C77    C112    1.403   .     A
C78    O53     1.382   .     S
C78    C113    1.403   .     A
C79    O54     1.382   .     S
C79    C114    1.403   .     A
C79    C85     1.409   .     A
C80    C96     1.409   .     A
C80    C115    1.403   .     A
C80    O55     1.382   .     S
C81    C107    1.409   .     A
C81    C116    1.403   .     A
C81    O57     1.382   .     S
C82    C118    1.409   .     A
C82    O58     1.382   .     S
C82    C117    1.403   .     A
C83    C119    1.403   .     A
C83    O59     1.382   .     S
C84    O60     1.382   .     S
C84    C120    1.403   .     A
C85    C108    1.409   .     A
C86    O61     1.382   .     S
C86    C121    1.403   .     A
C87    O62     1.382   .     S
C87    C122    1.403   .     A
C88    C123    1.403   .     A
C88    O63     1.382   .     S
C89    O64     1.382   .     S
C89    C124    1.403   .     A
C90    C125    1.403   .     A
C90    O65     1.382   .     S
C91    C126    1.403   .     A
C91    O66     1.382   .     S
C92    O68     1.382   .     S
C92    C127    1.403   .     A
C93    O69     1.382   .     S
C93    C118    1.409   .     A
C93    C128    1.403   .     A
C94    O70     1.382   .     S
C95    O71     1.382   .     S
C96    C104    1.409   .     A
C97    O72     1.382   .     S
C98    O73     1.382   .     S
C99    O74     1.382   .     S
C100   O75     1.382   .     S
C101   O76     1.382   .     S
C102   O77     1.382   .     S
C103   O79     1.382   .     S
C104   O80     1.382   .     S
C105   C107    1.409   .     A
C105   O81     1.382   .     S
C106   O82     1.382   .     S
C108   O83     1.382   .     S
C109   H1      1.084   .     S
C110   H12     1.084   .     S
C111   H23     1.084   .     S
C112   H34     1.084   .     S
C113   H45     1.084   .     S
C114   H56     1.084   .     S
C115   H62     1.084   .     S
C116   H63     1.084   .     S
C117   H64     1.084   .     S
C119   H2      1.084   .     S
C120   H3      1.084   .     S
C121   H4      1.084   .     S
C122   H5      1.084   .     S
C123   H6      1.084   .     S
C124   H7      1.084   .     S
C125   H8      1.084   .     S
C126   H9      1.084   .     S
C127   H10     1.084   .     S
C128   H11     1.084   .     S
H27    O49     0.992   .     S
H28    O50     0.992   .     S
H29    O51     0.992   .     S
H30    O52     0.992   .     S
H31    O53     0.992   .     S
H32    O54     0.992   .     S
H33    O55     0.992   .     S
H35    O57     0.992   .     S
H36    O58     0.992   .     S
H37    O59     0.992   .     S
H38    O60     0.992   .     S
H39    O61     0.992   .     S
H40    O62     0.992   .     S
H41    O63     0.992   .     S
H42    O64     0.992   .     S
H43    O65     0.992   .     S
H44    O66     0.992   .     S
H46    O68     0.992   .     S
H47    O69     0.992   .     S
H48    O70     0.992   .     S
H49    O71     0.992   .     S
H50    O72     0.992   .     S
H51    O73     0.992   .     S
H52    O74     0.992   .     S
H53    O75     0.992   .     S
H54    O76     0.992   .     S
H55    O77     0.992   .     S
H57    O79     0.992   .     S
H58    O80     0.992   .     S
H59    O81     0.992   .     S
H60    O82     0.992   .     S
H61    O83     0.992   .     S
O1     Zn12    1.938   1_455 S
O1     Zn4     1.938   .     S
O1     Zn8     1.938   .     S
O1     Zn1     1.938   .     S
O2     Zn3     1.914   .     S
O3     Zn6     1.914   .     S
O4     Zn5     1.914   .     S
O5     C51     1.276   1_565 A
O5     Zn15    1.914   .     S
O6     Zn14    1.914   .     S
O7     C54     1.276   1_655 A
O7     Zn9     1.914   .     S
O8     Zn1     1.914   .     S
O9     Zn11    1.914   .     S
O10    Zn10    1.914   .     S
O10    C53     1.276   1_565 S
O11    Zn13    1.914   .     S
O12    Zn13    1.938   .     S
O12    Zn3     1.938   .     S
O12    Zn7     1.938   .     S
O12    Zn9     1.938   1_455 S
O13    C55     1.276   1_655 A
O13    Zn12    1.914   .     S
O14    Zn4     1.934   .     S
O15    Zn3     1.934   1_655 S
O16    Zn6     1.934   1_565 S
O17    Zn5     1.934   .     S
O18    Zn8     1.934   1_655 S
O19    Zn7     1.934   .     S
O20    Zn2     1.934   .     S
O21    Zn16    1.934   1_565 S
O22    Zn7     1.934   1_655 S
O23    Zn2     1.938   .     S
O23    Zn6     1.938   .     S
O23    Zn14    1.938   .     S
O23    Zn10    1.938   1_545 S
O24    Zn8     1.934   .     S
O25    Zn5     1.934   1_565 S
O26    Zn6     1.934   .     S
O27    Zn3     1.934   .     S
O28    Zn4     1.934   1_655 S
O29    Zn16    1.934   .     S
O30    Zn2     1.934   1_565 S
O31    Zn11    1.934   .     S
O32    Zn10    1.934   .     S
O33    Zn13    1.934   .     S
O34    Zn16    1.938   .     S
O34    Zn11    1.938   .     S
O34    Zn5     1.938   .     S
O34    Zn15    1.938   1_545 S
O35    Zn12    1.934   .     S
O36    Zn15    1.934   .     S
O37    Zn14    1.934   .     S
O38    Zn9     1.934   .     S
O39    Zn1     1.934   .     S
O40    Zn14    1.934   .     S
O41    Zn15    1.934   .     S
O42    Zn12    1.934   .     S
O43    Zn13    1.934   .     S
O44    Zn10    1.934   .     S
O45    Zn8     1.914   .     S
O46    Zn11    1.934   .     S
O47    Zn1     1.934   .     S
O48    Zn9     1.934   .     S
O56    Zn7     1.914   .     S
O67    Zn2     1.914   .     S
O78    Zn16    1.914   .     S
O84    Zn4     1.914   .     S
Zn2    O30     1.934   1_545 S
Zn3    O15     1.934   1_455 S
Zn4    O28     1.934   1_455 S
Zn5    O25     1.934   1_545 S
Zn6    O16     1.934   1_545 S
Zn7    O22     1.934   1_455 S
Zn8    O18     1.934   1_455 S
Zn9    O12     1.938   1_655 S
Zn10   O23     1.938   1_565 S
Zn12   O1      1.938   1_655 S
Zn15   O34     1.938   1_565 S
Zn16   O21     1.934   1_545 S
