data_str_m1_o2_o5_pcu_sym.33
_audit_creation_date              2020-01-03
_audit_creation_method            'Materials Studio'
_symmetry_space_group_name_H-M    'P1'
_symmetry_Int_Tables_number       1
_symmetry_cell_setting            triclinic
loop_
_symmetry_equiv_pos_as_xyz
  x,y,z
_cell_length_a                    24.3832
_cell_length_b                    24.3832
_cell_length_c                    22.4796
_cell_angle_alpha                 90.0000
_cell_angle_beta                  90.0000
_cell_angle_gamma                 90.0000
loop_
_atom_site_label
_atom_site_type_symbol
_atom_site_fract_x
_atom_site_fract_y
_atom_site_fract_z
_atom_site_U_iso_or_equiv
_atom_site_adp_type
_atom_site_occupancy
Br1    Br    0.06056   0.27660   0.28541   0.00000  Uiso   1.00
Br2    Br    0.17571   0.60744   0.13147   0.00000  Uiso   1.00
Br3    Br    0.60744   0.82430   0.86853   0.00000  Uiso   1.00
Br4    Br    0.39256   0.17570   0.13147   0.00000  Uiso   1.00
Br5    Br    0.17570   0.60745   0.86853   0.00000  Uiso   1.00
Br6    Br    0.82430   0.39255   0.13147   0.00000  Uiso   1.00
Br7    Br    0.39256   0.17570   0.86853   0.00000  Uiso   1.00
Br8    Br    0.60745   0.82430   0.13147   0.00000  Uiso   1.00
Br9    Br    0.67571   0.89256   0.63147   0.00000  Uiso   1.00
Br10   Br    0.32430   0.10744   0.36853   0.00000  Uiso   1.00
Br11   Br    0.89255   0.32431   0.63147   0.00000  Uiso   1.00
Br12   Br    0.93944   0.72340   0.71460   0.00000  Uiso   1.00
Br13   Br    0.10744   0.67571   0.36853   0.00000  Uiso   1.00
Br14   Br    0.32430   0.10744   0.63147   0.00000  Uiso   1.00
Br15   Br    0.67570   0.89256   0.36853   0.00000  Uiso   1.00
Br16   Br    0.10745   0.67570   0.63147   0.00000  Uiso   1.00
Br17   Br    0.89255   0.32430   0.36853   0.00000  Uiso   1.00
Br18   Br    0.43944   0.77660   0.21460   0.00000  Uiso   1.00
Br19   Br    0.56056   0.22340   0.78542   0.00000  Uiso   1.00
Br20   Br    0.22340   0.43944   0.21459   0.00000  Uiso   1.00
Br21   Br    0.77660   0.56056   0.78540   0.00000  Uiso   1.00
Br22   Br    0.56056   0.22340   0.21459   0.00000  Uiso   1.00
Br23   Br    0.27660   0.93944   0.28540   0.00000  Uiso   1.00
Br24   Br    0.43944   0.77660   0.78541   0.00000  Uiso   1.00
Br25   Br    0.77660   0.56056   0.21459   0.00000  Uiso   1.00
Br26   Br    0.22340   0.43944   0.78541   0.00000  Uiso   1.00
Br27   Br    0.72340   0.06056   0.71458   0.00000  Uiso   1.00
Br28   Br    0.93944   0.72340   0.28541   0.00000  Uiso   1.00
Br29   Br    0.06056   0.27660   0.71460   0.00000  Uiso   1.00
Br30   Br    0.72340   0.06056   0.28541   0.00000  Uiso   1.00
Br31   Br    0.27660   0.93944   0.71459   0.00000  Uiso   1.00
Br32   Br    0.82431   0.39255   0.86853   0.00000  Uiso   1.00
C1     C     0.22878   0.27122   0.25000   0.00000  Uiso   1.00
C2     C     0.22861   0.72861   0.25000   0.00000  Uiso   1.00
C3     C     0.15377   0.68180   0.29977   0.00000  Uiso   1.00
C4     C     0.31820   0.15377   0.70023   0.00000  Uiso   1.00
C5     C     0.68180   0.84623   0.29977   0.00000  Uiso   1.00
C6     C     0.15377   0.68180   0.70023   0.00000  Uiso   1.00
C7     C     0.84623   0.31820   0.29977   0.00000  Uiso   1.00
C8     C     0.36617   0.79790   0.23588   0.00000  Uiso   1.00
C9     C     0.63383   0.20210   0.76413   0.00000  Uiso   1.00
C10    C     0.20210   0.36617   0.23588   0.00000  Uiso   1.00
C11    C     0.79790   0.63383   0.76412   0.00000  Uiso   1.00
C12    C     0.63383   0.20210   0.23588   0.00000  Uiso   1.00
C13    C     0.72861   0.77140   0.75000   0.00000  Uiso   1.00
C14    C     0.36617   0.79790   0.76412   0.00000  Uiso   1.00
C15    C     0.79790   0.63383   0.23588   0.00000  Uiso   1.00
C16    C     0.20210   0.36617   0.76412   0.00000  Uiso   1.00
C17    C     0.14750   0.35250   0.25000   0.00000  Uiso   1.00
C18    C     0.85250   0.64750   0.75000   0.00000  Uiso   1.00
C19    C     0.35250   0.85250   0.25000   0.00000  Uiso   1.00
C20    C     0.64750   0.14750   0.75000   0.00000  Uiso   1.00
C21    C     0.85250   0.64750   0.25000   0.00000  Uiso   1.00
C22    C     0.14750   0.35250   0.75000   0.00000  Uiso   1.00
C23    C     0.64750   0.14750   0.25000   0.00000  Uiso   1.00
C24    C     0.27140   0.22861   0.25000   0.00000  Uiso   1.00
C25    C     0.35250   0.85250   0.75000   0.00000  Uiso   1.00
C26    C     0.85262   0.35262   0.75000   0.00000  Uiso   1.00
C27    C     0.14738   0.64738   0.25000   0.00000  Uiso   1.00
C28    C     0.64738   0.85262   0.75000   0.00000  Uiso   1.00
C29    C     0.35262   0.14738   0.25000   0.00000  Uiso   1.00
C30    C     0.14738   0.64738   0.75000   0.00000  Uiso   1.00
C31    C     0.85262   0.35262   0.25000   0.00000  Uiso   1.00
C32    C     0.35262   0.14738   0.75000   0.00000  Uiso   1.00
C33    C     0.64738   0.85262   0.25000   0.00000  Uiso   1.00
C34    C     0.22861   0.72861   0.75000   0.00000  Uiso   1.00
C35    C     0.77139   0.27140   0.25000   0.00000  Uiso   1.00
C36    C     0.27140   0.22861   0.75000   0.00000  Uiso   1.00
C37    C     0.72861   0.77140   0.25000   0.00000  Uiso   1.00
C38    C     0.00000   0.50000   0.47334   0.00000  Uiso   1.00
C39    C     0.00000   0.50000   0.52666   0.00000  Uiso   1.00
C40    C     0.50000   0.00000   0.47334   0.00000  Uiso   1.00
C41    C     0.77122   0.72878   0.75000   0.00000  Uiso   1.00
C42    C     0.50000   0.00000   0.52666   0.00000  Uiso   1.00
C43    C     0.50000   0.00000   0.97334   0.00000  Uiso   1.00
C44    C     0.50000   0.00000   0.02666   0.00000  Uiso   1.00
C45    C     0.00000   0.50000   0.97334   0.00000  Uiso   1.00
C46    C     0.00000   0.50000   0.02666   0.00000  Uiso   1.00
C47    C     0.00000   0.50000   0.08997   0.00000  Uiso   1.00
C48    C     0.00000   0.50000   0.91004   0.00000  Uiso   1.00
C49    C     0.50000   0.00000   0.08997   0.00000  Uiso   1.00
C50    C     0.50000   0.00000   0.91004   0.00000  Uiso   1.00
C51    C     0.50000   0.00000   0.58997   0.00000  Uiso   1.00
C52    C     0.27122   0.77122   0.25000   0.00000  Uiso   1.00
C53    C     0.50000   0.00000   0.41004   0.00000  Uiso   1.00
C54    C     0.00000   0.50000   0.58997   0.00000  Uiso   1.00
C55    C     0.00000   0.50000   0.41004   0.00000  Uiso   1.00
C56    C     0.10510   0.60510   0.25000   0.00000  Uiso   1.00
C57    C     0.89490   0.39490   0.75000   0.00000  Uiso   1.00
C58    C     0.60510   0.89490   0.25000   0.00000  Uiso   1.00
C59    C     0.39490   0.10510   0.75000   0.00000  Uiso   1.00
C60    C     0.89490   0.39490   0.25000   0.00000  Uiso   1.00
C61    C     0.10510   0.60510   0.75000   0.00000  Uiso   1.00
C62    C     0.39490   0.10510   0.25000   0.00000  Uiso   1.00
C63    C     0.72878   0.22878   0.75000   0.00000  Uiso   1.00
C64    C     0.60510   0.89490   0.75000   0.00000  Uiso   1.00
C65    C     0.89485   0.60515   0.75000   0.00000  Uiso   1.00
C66    C     0.10515   0.39486   0.25000   0.00000  Uiso   1.00
C67    C     0.39486   0.89486   0.75000   0.00000  Uiso   1.00
C68    C     0.60515   0.10515   0.25000   0.00000  Uiso   1.00
C69    C     0.10515   0.39486   0.75000   0.00000  Uiso   1.00
C70    C     0.89485   0.60515   0.25000   0.00000  Uiso   1.00
C71    C     0.60515   0.10515   0.75000   0.00000  Uiso   1.00
C72    C     0.39485   0.89485   0.25000   0.00000  Uiso   1.00
C73    C     0.17455   0.25774   0.26446   0.00000  Uiso   1.00
C74    C     0.77122   0.72878   0.25000   0.00000  Uiso   1.00
C75    C     0.82545   0.74226   0.73554   0.00000  Uiso   1.00
C76    C     0.25774   0.82545   0.26446   0.00000  Uiso   1.00
C77    C     0.74226   0.17455   0.73554   0.00000  Uiso   1.00
C78    C     0.82545   0.74226   0.26446   0.00000  Uiso   1.00
C79    C     0.17455   0.25774   0.73554   0.00000  Uiso   1.00
C80    C     0.74226   0.17455   0.26446   0.00000  Uiso   1.00
C81    C     0.25774   0.82545   0.73554   0.00000  Uiso   1.00
C82    C     0.77758   0.30597   0.79933   0.00000  Uiso   1.00
C83    C     0.22242   0.69402   0.20067   0.00000  Uiso   1.00
C84    C     0.69402   0.77758   0.79933   0.00000  Uiso   1.00
C85    C     0.22878   0.27122   0.75000   0.00000  Uiso   1.00
C86    C     0.30598   0.22242   0.20067   0.00000  Uiso   1.00
C87    C     0.22242   0.69402   0.79933   0.00000  Uiso   1.00
C88    C     0.77758   0.30598   0.20067   0.00000  Uiso   1.00
C89    C     0.30598   0.22242   0.79933   0.00000  Uiso   1.00
C90    C     0.69402   0.77758   0.20067   0.00000  Uiso   1.00
C91    C     0.72242   0.80598   0.70067   0.00000  Uiso   1.00
C92    C     0.27758   0.19402   0.29933   0.00000  Uiso   1.00
C93    C     0.80597   0.27758   0.70067   0.00000  Uiso   1.00
C94    C     0.19402   0.72242   0.29933   0.00000  Uiso   1.00
C95    C     0.27758   0.19402   0.70067   0.00000  Uiso   1.00
C96    C     0.72878   0.22878   0.25000   0.00000  Uiso   1.00
C97    C     0.72242   0.80598   0.29933   0.00000  Uiso   1.00
C98    C     0.19402   0.72242   0.70067   0.00000  Uiso   1.00
C99    C     0.80598   0.27758   0.29933   0.00000  Uiso   1.00
C100   C     0.32545   0.75774   0.23554   0.00000  Uiso   1.00
C101   C     0.67455   0.24226   0.76446   0.00000  Uiso   1.00
C102   C     0.24226   0.32545   0.23554   0.00000  Uiso   1.00
C103   C     0.75774   0.67455   0.76446   0.00000  Uiso   1.00
C104   C     0.67455   0.24226   0.23554   0.00000  Uiso   1.00
C105   C     0.32545   0.75774   0.76446   0.00000  Uiso   1.00
C106   C     0.75774   0.67455   0.23554   0.00000  Uiso   1.00
C107   C     0.27122   0.77122   0.75000   0.00000  Uiso   1.00
C108   C     0.24226   0.32545   0.76446   0.00000  Uiso   1.00
C109   C     0.13383   0.29790   0.26412   0.00000  Uiso   1.00
C110   C     0.86617   0.70210   0.73588   0.00000  Uiso   1.00
C111   C     0.29790   0.86617   0.26412   0.00000  Uiso   1.00
C112   C     0.70210   0.13383   0.73587   0.00000  Uiso   1.00
C113   C     0.86617   0.70210   0.26412   0.00000  Uiso   1.00
C114   C     0.13383   0.29790   0.73588   0.00000  Uiso   1.00
C115   C     0.70210   0.13383   0.26412   0.00000  Uiso   1.00
C116   C     0.29790   0.86617   0.73588   0.00000  Uiso   1.00
C117   C     0.81821   0.34622   0.79977   0.00000  Uiso   1.00
C118   C     0.77139   0.27139   0.75000   0.00000  Uiso   1.00
C119   C     0.18180   0.65377   0.20023   0.00000  Uiso   1.00
C120   C     0.65377   0.81820   0.79977   0.00000  Uiso   1.00
C121   C     0.34623   0.18180   0.20023   0.00000  Uiso   1.00
C122   C     0.18180   0.65377   0.79977   0.00000  Uiso   1.00
C123   C     0.81820   0.34623   0.20023   0.00000  Uiso   1.00
C124   C     0.34623   0.18180   0.79977   0.00000  Uiso   1.00
C125   C     0.65377   0.81820   0.20023   0.00000  Uiso   1.00
C126   C     0.68180   0.84623   0.70023   0.00000  Uiso   1.00
C127   C     0.31820   0.15377   0.29977   0.00000  Uiso   1.00
C128   C     0.84622   0.31821   0.70023   0.00000  Uiso   1.00
H1     H     0.16379   0.21585   0.27547   0.00000  Uiso   1.00
H2     H     0.24883   0.69872   0.16225   0.00000  Uiso   1.00
H3     H     0.69872   0.75117   0.83775   0.00000  Uiso   1.00
H4     H     0.30127   0.24883   0.16225   0.00000  Uiso   1.00
H5     H     0.24883   0.69873   0.83775   0.00000  Uiso   1.00
H6     H     0.75117   0.30127   0.16225   0.00000  Uiso   1.00
H7     H     0.30128   0.24883   0.83775   0.00000  Uiso   1.00
H8     H     0.69873   0.75117   0.16225   0.00000  Uiso   1.00
H9     H     0.74883   0.80128   0.66225   0.00000  Uiso   1.00
H10    H     0.25117   0.19873   0.33775   0.00000  Uiso   1.00
H11    H     0.80127   0.25118   0.66224   0.00000  Uiso   1.00
H12    H     0.83621   0.78416   0.72453   0.00000  Uiso   1.00
H13    H     0.19872   0.74883   0.33775   0.00000  Uiso   1.00
H14    H     0.25117   0.19873   0.66225   0.00000  Uiso   1.00
H15    H     0.74883   0.80127   0.33775   0.00000  Uiso   1.00
H16    H     0.19873   0.74883   0.66225   0.00000  Uiso   1.00
H17    H     0.80127   0.25117   0.33775   0.00000  Uiso   1.00
H18    H     0.33621   0.71585   0.22453   0.00000  Uiso   1.00
H19    H     0.66379   0.28415   0.77548   0.00000  Uiso   1.00
H20    H     0.28416   0.33621   0.22453   0.00000  Uiso   1.00
H21    H     0.71585   0.66379   0.77547   0.00000  Uiso   1.00
H22    H     0.66379   0.28415   0.22453   0.00000  Uiso   1.00
H23    H     0.21585   0.83621   0.27547   0.00000  Uiso   1.00
H24    H     0.33621   0.71585   0.77547   0.00000  Uiso   1.00
H25    H     0.71585   0.66379   0.22453   0.00000  Uiso   1.00
H26    H     0.28416   0.33621   0.77547   0.00000  Uiso   1.00
H27    H     0.78415   0.16379   0.72452   0.00000  Uiso   1.00
H28    H     0.83621   0.78415   0.27547   0.00000  Uiso   1.00
H29    H     0.16379   0.21585   0.72453   0.00000  Uiso   1.00
H30    H     0.78415   0.16379   0.27547   0.00000  Uiso   1.00
H31    H     0.21585   0.83621   0.72453   0.00000  Uiso   1.00
H32    H     0.75118   0.30127   0.83776   0.00000  Uiso   1.00
O1     O     0.00000   0.50000   0.25000   0.00000  Uiso   1.00
O2     O     0.00000   0.45454   0.88202   0.00000  Uiso   1.00
O3     O     0.54546   0.00000   0.11798   0.00000  Uiso   1.00
O4     O     0.45454   0.00000   0.88202   0.00000  Uiso   1.00
O5     O     0.50000   0.95454   0.61798   0.00000  Uiso   1.00
O6     O     0.50000   0.04546   0.38202   0.00000  Uiso   1.00
O7     O     0.95454   0.50000   0.61798   0.00000  Uiso   1.00
O8     O     0.04546   0.50000   0.38202   0.00000  Uiso   1.00
O9     O     0.50000   0.04546   0.61798   0.00000  Uiso   1.00
O10    O     0.50000   0.95454   0.38202   0.00000  Uiso   1.00
O11    O     0.04546   0.50000   0.61798   0.00000  Uiso   1.00
O12    O     0.00000   0.50000   0.75000   0.00000  Uiso   1.00
O13    O     0.95454   0.50000   0.38202   0.00000  Uiso   1.00
O14    O     0.06399   0.60947   0.21539   0.00000  Uiso   1.00
O15    O     0.93601   0.39053   0.78461   0.00000  Uiso   1.00
O16    O     0.60947   0.93601   0.21539   0.00000  Uiso   1.00
O17    O     0.39053   0.06399   0.78461   0.00000  Uiso   1.00
O18    O     0.93601   0.39053   0.21539   0.00000  Uiso   1.00
O19    O     0.06399   0.60947   0.78461   0.00000  Uiso   1.00
O20    O     0.39053   0.06399   0.21539   0.00000  Uiso   1.00
O21    O     0.60947   0.93601   0.78461   0.00000  Uiso   1.00
O22    O     0.93601   0.60947   0.78461   0.00000  Uiso   1.00
O23    O     0.50000   0.00000   0.25000   0.00000  Uiso   1.00
O24    O     0.06399   0.39053   0.21539   0.00000  Uiso   1.00
O25    O     0.39053   0.93601   0.78461   0.00000  Uiso   1.00
O26    O     0.60947   0.06399   0.21539   0.00000  Uiso   1.00
O27    O     0.06399   0.39053   0.78461   0.00000  Uiso   1.00
O28    O     0.93601   0.60947   0.21539   0.00000  Uiso   1.00
O29    O     0.60947   0.06399   0.78461   0.00000  Uiso   1.00
O30    O     0.39053   0.93601   0.21539   0.00000  Uiso   1.00
O31    O     0.56399   0.10947   0.71539   0.00000  Uiso   1.00
O32    O     0.43601   0.89053   0.28461   0.00000  Uiso   1.00
O33    O     0.10947   0.43601   0.71539   0.00000  Uiso   1.00
O34    O     0.50000   0.00000   0.75000   0.00000  Uiso   1.00
O35    O     0.89053   0.56399   0.28461   0.00000  Uiso   1.00
O36    O     0.43601   0.89053   0.71539   0.00000  Uiso   1.00
O37    O     0.56399   0.10947   0.28461   0.00000  Uiso   1.00
O38    O     0.89053   0.56399   0.71539   0.00000  Uiso   1.00
O39    O     0.10947   0.43601   0.28461   0.00000  Uiso   1.00
O40    O     0.43601   0.10947   0.28461   0.00000  Uiso   1.00
O41    O     0.56399   0.89053   0.71539   0.00000  Uiso   1.00
O42    O     0.89053   0.43601   0.28461   0.00000  Uiso   1.00
O43    O     0.10947   0.56399   0.71539   0.00000  Uiso   1.00
O44    O     0.56399   0.89053   0.28461   0.00000  Uiso   1.00
O45    O     0.00000   0.45454   0.11798   0.00000  Uiso   1.00
O46    O     0.43601   0.10947   0.71539   0.00000  Uiso   1.00
O47    O     0.10947   0.56399   0.28461   0.00000  Uiso   1.00
O48    O     0.89053   0.43601   0.71539   0.00000  Uiso   1.00
O49    O     0.00000   0.54546   0.88202   0.00000  Uiso   1.00
O50    O     0.45454   0.00000   0.11798   0.00000  Uiso   1.00
O51    O     0.54546   0.00000   0.88202   0.00000  Uiso   1.00
O52    O     0.00000   0.54546   0.11798   0.00000  Uiso   1.00
Zn1    Zn    0.06497   0.50000   0.29947   0.00000  Uiso   1.00
Zn2    Zn    0.43503   0.00000   0.20053   0.00000  Uiso   1.00
Zn3    Zn    0.00000   0.43503   0.79947   0.00000  Uiso   1.00
Zn4    Zn    0.00000   0.56497   0.20053   0.00000  Uiso   1.00
Zn5    Zn    0.43503   0.00000   0.79947   0.00000  Uiso   1.00
Zn6    Zn    0.56497   0.00000   0.20053   0.00000  Uiso   1.00
Zn7    Zn    0.00000   0.56497   0.79947   0.00000  Uiso   1.00
Zn8    Zn    0.00000   0.43503   0.20053   0.00000  Uiso   1.00
Zn9    Zn    0.93503   0.50000   0.70053   0.00000  Uiso   1.00
Zn10   Zn    0.50000   0.93503   0.29947   0.00000  Uiso   1.00
Zn11   Zn    0.50000   0.06497   0.70053   0.00000  Uiso   1.00
Zn12   Zn    0.93503   0.50000   0.29947   0.00000  Uiso   1.00
Zn13   Zn    0.06497   0.50000   0.70053   0.00000  Uiso   1.00
Zn14   Zn    0.50000   0.06497   0.29947   0.00000  Uiso   1.00
Zn15   Zn    0.50000   0.93503   0.70053   0.00000  Uiso   1.00
Zn16   Zn    0.56497   0.00000   0.79947   0.00000  Uiso   1.00
loop_
_geom_bond_atom_site_label_1
_geom_bond_atom_site_label_2
_geom_bond_distance
_geom_bond_site_symmetry_2
_ccdc_geom_bond_type
Br1    C109    1.921   .     S
Br2    C119    1.920   .     S
Br3    C120    1.920   .     S
Br4    C121    1.920   .     S
Br5    C122    1.920   .     S
Br6    C123    1.920   .     S
Br7    C124    1.920   .     S
Br8    C125    1.920   .     S
Br9    C126    1.920   .     S
Br10   C127    1.920   .     S
Br11   C128    1.920   .     S
Br12   C110    1.921   .     S
Br13   C3      1.920   .     S
Br14   C4      1.920   .     S
Br15   C5      1.920   .     S
Br16   C6      1.920   .     S
Br17   C7      1.920   .     S
Br18   C8      1.921   .     S
Br19   C9      1.921   .     S
Br20   C10     1.921   .     S
Br21   C11     1.921   .     S
Br22   C12     1.921   .     S
Br23   C111    1.921   .     S
Br24   C14     1.921   .     S
Br25   C15     1.921   .     S
Br26   C16     1.921   .     S
Br27   C112    1.921   .     S
Br28   C113    1.921   .     S
Br29   C114    1.921   .     S
Br30   C115    1.921   .     S
Br31   C116    1.921   .     S
Br32   C117    1.920   .     S
C1     C102    1.401   .     A
C1     C73     1.401   .     A
C1     C24     1.470   .     S
C2     C94     1.401   .     A
C2     C52     1.469   .     S
C2     C83     1.401   .     A
C3     C27     1.407   .     A
C3     C94     1.394   .     A
C4     C95     1.394   .     A
C4     C32     1.407   .     A
C5     C33     1.407   .     A
C5     C97     1.394   .     A
C6     C98     1.394   .     A
C6     C30     1.407   .     A
C7     C31     1.407   .     A
C7     C99     1.394   .     A
C8     C100    1.394   .     A
C8     C19     1.409   .     A
C9     C101    1.394   .     A
C9     C20     1.409   .     A
C10    C102    1.394   .     A
C10    C17     1.409   .     A
C11    C103    1.394   .     A
C11    C18     1.409   .     A
C12    C104    1.394   .     A
C12    C23     1.409   .     A
C13    C41     1.469   .     S
C13    C91     1.401   .     A
C13    C84     1.401   .     A
C14    C105    1.394   .     A
C14    C25     1.409   .     A
C15    C106    1.394   .     A
C15    C21     1.409   .     A
C16    C22     1.409   .     A
C16    C108    1.394   .     A
C17    C66     1.461   .     S
C17    C109    1.409   .     A
C18    C65     1.461   .     S
C18    C110    1.409   .     A
C19    C111    1.409   .     A
C19    C72     1.461   .     S
C20    C71     1.461   .     S
C20    C112    1.409   .     A
C21    C70     1.461   .     S
C21    C113    1.409   .     A
C22    C69     1.461   .     S
C22    C114    1.409   .     A
C23    C68     1.461   .     S
C23    C115    1.409   .     A
C24    C92     1.401   .     A
C24    C86     1.401   .     A
C25    C67     1.461   .     S
C25    C116    1.409   .     A
C26    C117    1.407   .     A
C26    C128    1.407   .     A
C26    C57     1.458   .     S
C27    C56     1.458   .     S
C27    C119    1.407   .     A
C28    C126    1.407   .     A
C28    C120    1.407   .     A
C28    C64     1.458   .     S
C29    C121    1.407   .     A
C29    C62     1.458   .     S
C29    C127    1.407   .     A
C30    C122    1.407   .     A
C30    C61     1.458   .     S
C31    C60     1.458   .     S
C31    C123    1.407   .     A
C32    C124    1.407   .     A
C32    C59     1.458   .     S
C33    C58     1.458   .     S
C33    C125    1.407   .     A
C34    C98     1.401   .     A
C34    C87     1.401   .     A
C34    C107    1.469   .     S
C35    C88     1.401   .     A
C35    C99     1.401   .     A
C35    C96     1.469   .     S
C36    C85     1.470   .     S
C36    C95     1.401   .     A
C36    C89     1.401   .     A
C37    C90     1.401   .     A
C37    C74     1.469   .     S
C37    C97     1.401   .     A
C38    C55     1.423   .     S
C38    C39     1.199   .     S
C39    C54     1.423   .     S
C40    C53     1.423   .     S
C40    C42     1.199   .     T
C41    C103    1.401   .     A
C41    C75     1.401   .     A
C42    C51     1.423   .     S
C43    C44     1.199   1_556 S
C43    C50     1.423   .     S
C44    C49     1.423   .     S
C44    C43     1.199   1_554 S
C45    C48     1.423   .     S
C45    C46     1.199   1_556 S
C46    C47     1.423   .     S
C46    C45     1.199   1_554 S
C47    O52     1.275   .     A
C47    O45     1.275   .     A
C48    O2      1.275   .     S
C48    O49     1.275   .     S
C49    O3      1.275   .     S
C49    O50     1.275   .     S
C50    O51     1.275   .     A
C50    O4      1.275   .     A
C51    O5      1.275   1_545 A
C51    O9      1.275   .     S
C52    C100    1.401   .     A
C52    C76     1.401   .     A
C53    O10     1.275   1_545 A
C53    O6      1.275   .     S
C54    O7      1.275   1_455 A
C54    O11     1.275   .     S
C55    O8      1.275   .     A
C55    O13     1.275   1_455 S
C56    O47     1.273   .     A
C56    O14     1.273   .     A
C57    O15     1.273   .     A
C57    O48     1.273   .     A
C58    O44     1.273   .     A
C58    O16     1.273   .     A
C59    O17     1.273   .     A
C59    O46     1.273   .     A
C60    O18     1.273   .     A
C60    O42     1.273   .     A
C61    O19     1.273   .     A
C61    O43     1.273   .     A
C62    O20     1.273   .     A
C62    O40     1.273   .     A
C63    C101    1.401   .     A
C63    C77     1.401   .     A
C63    C118    1.469   .     S
C64    O41     1.273   .     A
C64    O21     1.273   .     A
C65    O38     1.274   .     A
C65    O22     1.274   .     A
C66    O24     1.274   .     A
C66    O39     1.274   .     A
C67    O25     1.274   .     A
C67    O36     1.274   .     A
C68    O37     1.274   .     A
C68    O26     1.274   .     A
C69    O33     1.274   .     A
C69    O27     1.274   .     A
C70    O28     1.274   .     A
C70    O35     1.274   .     A
C71    O31     1.274   .     A
C71    O29     1.274   .     A
C72    O30     1.274   .     A
C72    O32     1.274   .     A
C73    C109    1.394   .     A
C73    H1      1.083   .     S
C74    C106    1.401   .     A
C74    C78     1.401   .     A
C75    H12     1.083   .     S
C75    C110    1.394   .     A
C76    H23     1.083   .     S
C76    C111    1.394   .     A
C77    H27     1.083   .     S
C77    C112    1.394   .     A
C78    H28     1.083   .     S
C78    C113    1.394   .     A
C79    C85     1.401   .     A
C79    C114    1.394   .     A
C79    H29     1.083   .     S
C80    H30     1.083   .     S
C80    C115    1.394   .     A
C80    C96     1.401   .     A
C81    C116    1.394   .     A
C81    C107    1.401   .     A
C81    H31     1.083   .     S
C82    H32     1.083   .     S
C82    C118    1.401   .     A
C82    C117    1.394   .     A
C83    C119    1.394   .     A
C83    H2      1.083   .     S
C84    H3      1.083   .     S
C84    C120    1.394   .     A
C85    C108    1.401   .     A
C86    C121    1.394   .     A
C86    H4      1.083   .     S
C87    H5      1.083   .     S
C87    C122    1.394   .     A
C88    H6      1.083   .     S
C88    C123    1.394   .     A
C89    C124    1.394   .     A
C89    H7      1.083   .     S
C90    H8      1.083   .     S
C90    C125    1.394   .     A
C91    H9      1.083   .     S
C91    C126    1.394   .     A
C92    C127    1.394   .     A
C92    H10     1.083   .     S
C93    C128    1.394   .     A
C93    H11     1.083   .     S
C93    C118    1.401   .     A
C94    H13     1.083   .     S
C95    H14     1.083   .     S
C96    C104    1.401   .     A
C97    H15     1.083   .     S
C98    H16     1.083   .     S
C99    H17     1.083   .     S
C100   H18     1.083   .     S
C101   H19     1.083   .     S
C102   H20     1.083   .     S
C103   H21     1.083   .     S
C104   H22     1.083   .     S
C105   H24     1.083   .     S
C105   C107    1.401   .     A
C106   H25     1.083   .     S
C108   H26     1.083   .     S
O1     Zn8     1.936   .     S
O1     Zn4     1.936   .     S
O1     Zn1     1.936   .     S
O1     Zn12    1.936   1_455 S
O2     Zn3     1.916   .     S
O3     Zn6     1.916   .     S
O4     Zn5     1.916   .     S
O5     C51     1.275   1_565 A
O5     Zn15    1.916   .     S
O6     Zn14    1.916   .     S
O7     C54     1.275   1_655 A
O7     Zn9     1.916   .     S
O8     Zn1     1.916   .     S
O9     Zn11    1.916   .     S
O10    C53     1.275   1_565 A
O10    Zn10    1.916   .     S
O11    Zn13    1.916   .     S
O12    Zn7     1.936   .     S
O12    Zn13    1.936   .     S
O12    Zn3     1.936   .     S
O12    Zn9     1.936   1_455 S
O13    Zn12    1.916   .     S
O13    C55     1.275   1_655 S
O14    Zn4     1.930   .     S
O15    Zn3     1.930   1_655 S
O16    Zn6     1.930   1_565 S
O17    Zn5     1.930   .     S
O18    Zn8     1.930   1_655 S
O19    Zn7     1.930   .     S
O20    Zn2     1.930   .     S
O21    Zn16    1.930   1_565 S
O22    Zn7     1.930   1_655 S
O23    Zn6     1.936   .     S
O23    Zn10    1.936   1_545 S
O23    Zn2     1.936   .     S
O23    Zn14    1.936   .     S
O24    Zn8     1.930   .     S
O25    Zn5     1.930   1_565 S
O26    Zn6     1.930   .     S
O27    Zn3     1.930   .     S
O28    Zn4     1.930   1_655 S
O29    Zn16    1.930   .     S
O30    Zn2     1.930   1_565 S
O31    Zn11    1.930   .     S
O32    Zn10    1.930   .     S
O33    Zn13    1.930   .     S
O34    Zn5     1.936   .     S
O34    Zn16    1.936   .     S
O34    Zn15    1.936   1_545 S
O34    Zn11    1.936   .     S
O35    Zn12    1.930   .     S
O36    Zn15    1.930   .     S
O37    Zn14    1.930   .     S
O38    Zn9     1.930   .     S
O39    Zn1     1.930   .     S
O40    Zn14    1.930   .     S
O41    Zn15    1.930   .     S
O42    Zn12    1.930   .     S
O43    Zn13    1.930   .     S
O44    Zn10    1.930   .     S
O45    Zn8     1.916   .     S
O46    Zn11    1.930   .     S
O47    Zn1     1.930   .     S
O48    Zn9     1.930   .     S
O49    Zn7     1.916   .     S
O50    Zn2     1.916   .     S
O51    Zn16    1.916   .     S
O52    Zn4     1.916   .     S
Zn2    O30     1.930   1_545 S
Zn3    O15     1.930   1_455 S
Zn4    O28     1.930   1_455 S
Zn5    O25     1.930   1_545 S
Zn6    O16     1.930   1_545 S
Zn7    O22     1.930   1_455 S
Zn8    O18     1.930   1_455 S
Zn9    O12     1.936   1_655 S
Zn10   O23     1.936   1_565 S
Zn12   O1      1.936   1_655 S
Zn15   O34     1.936   1_565 S
Zn16   O21     1.930   1_545 S
