data_str_m1_o2_o5_pcu_sym.2
_audit_creation_date              2020-01-03
_audit_creation_method            'Materials Studio'
_symmetry_space_group_name_H-M    'P1'
_symmetry_Int_Tables_number       1
_symmetry_cell_setting            triclinic
loop_
_symmetry_equiv_pos_as_xyz
  x,y,z
_cell_length_a                    24.4695
_cell_length_b                    24.4695
_cell_length_c                    22.4426
_cell_angle_alpha                 90.0000
_cell_angle_beta                  90.0000
_cell_angle_gamma                 90.0002
loop_
_atom_site_label
_atom_site_type_symbol
_atom_site_fract_x
_atom_site_fract_y
_atom_site_fract_z
_atom_site_U_iso_or_equiv
_atom_site_adp_type
_atom_site_occupancy
C1     C     0.22867   0.27133   0.25000   0.00000  Uiso   1.00
C2     C     0.22867   0.72867   0.25000   0.00000  Uiso   1.00
C3     C     0.19933   0.63651   0.27389   0.00000  Uiso   1.00
C4     C     0.34793   0.18378   0.70184   0.00000  Uiso   1.00
C5     C     0.63655   0.80070   0.27401   0.00000  Uiso   1.00
C6     C     0.19934   0.63650   0.72613   0.00000  Uiso   1.00
C7     C     0.80067   0.36349   0.27389   0.00000  Uiso   1.00
C8     C     0.34796   0.81620   0.29813   0.00000  Uiso   1.00
C9     C     0.65205   0.18380   0.70186   0.00000  Uiso   1.00
C10    C     0.18371   0.34788   0.29820   0.00000  Uiso   1.00
C11    C     0.80066   0.63651   0.72612   0.00000  Uiso   1.00
C12    C     0.65204   0.18380   0.29813   0.00000  Uiso   1.00
C13    C     0.72867   0.77133   0.75000   0.00000  Uiso   1.00
C14    C     0.34797   0.81619   0.70187   0.00000  Uiso   1.00
C15    C     0.81627   0.65210   0.29819   0.00000  Uiso   1.00
C16    C     0.19932   0.36348   0.72607   0.00000  Uiso   1.00
C17    C     0.14754   0.35246   0.25000   0.00000  Uiso   1.00
C18    C     0.85245   0.64755   0.75000   0.00000  Uiso   1.00
C19    C     0.35245   0.85245   0.25000   0.00000  Uiso   1.00
C20    C     0.64755   0.14755   0.75000   0.00000  Uiso   1.00
C21    C     0.85245   0.64755   0.25000   0.00000  Uiso   1.00
C22    C     0.14755   0.35245   0.75000   0.00000  Uiso   1.00
C23    C     0.64755   0.14755   0.25000   0.00000  Uiso   1.00
C24    C     0.27133   0.22867   0.25000   0.00000  Uiso   1.00
C25    C     0.35245   0.85245   0.75000   0.00000  Uiso   1.00
C26    C     0.85245   0.35245   0.75000   0.00000  Uiso   1.00
C27    C     0.14755   0.64755   0.25000   0.00000  Uiso   1.00
C28    C     0.64755   0.85245   0.75000   0.00000  Uiso   1.00
C29    C     0.35245   0.14755   0.25000   0.00000  Uiso   1.00
C30    C     0.14755   0.64755   0.75000   0.00000  Uiso   1.00
C31    C     0.85245   0.35245   0.25000   0.00000  Uiso   1.00
C32    C     0.35245   0.14755   0.75000   0.00000  Uiso   1.00
C33    C     0.64755   0.85245   0.25000   0.00000  Uiso   1.00
C34    C     0.22867   0.72867   0.75000   0.00000  Uiso   1.00
C35    C     0.77133   0.27133   0.25000   0.00000  Uiso   1.00
C36    C     0.27133   0.22867   0.75000   0.00000  Uiso   1.00
C37    C     0.72867   0.77133   0.25000   0.00000  Uiso   1.00
C38    C     0.00000   0.50000   0.47331   0.00000  Uiso   1.00
C39    C     0.00000   0.50000   0.52668   0.00000  Uiso   1.00
C40    C     0.50000   0.00000   0.47331   0.00000  Uiso   1.00
C41    C     0.77133   0.72867   0.75000   0.00000  Uiso   1.00
C42    C     0.50000   0.00000   0.52668   0.00000  Uiso   1.00
C43    C     0.50000   0.00000   0.97331   0.00000  Uiso   1.00
C44    C     0.50000   0.00000   0.02669   0.00000  Uiso   1.00
C45    C    -0.00000   0.50000   0.97331   0.00000  Uiso   1.00
C46    C     0.00000   0.50000   0.02668   0.00000  Uiso   1.00
C47    C    -0.00000   0.50000   0.09002   0.00000  Uiso   1.00
C48    C     0.00000   0.50000   0.90998   0.00000  Uiso   1.00
C49    C     0.50000   0.00000   0.09002   0.00000  Uiso   1.00
C50    C     0.50000   0.00000   0.90998   0.00000  Uiso   1.00
C51    C     0.50000   0.00000   0.59002   0.00000  Uiso   1.00
C52    C     0.27133   0.77133   0.25000   0.00000  Uiso   1.00
C53    C     0.50000   0.00000   0.40998   0.00000  Uiso   1.00
C54    C    -0.00000   0.50000   0.59002   0.00000  Uiso   1.00
C55    C     0.00000   0.50000   0.40998   0.00000  Uiso   1.00
C56    C     0.10520   0.60520   0.25000   0.00000  Uiso   1.00
C57    C     0.89480   0.39480   0.75000   0.00000  Uiso   1.00
C58    C     0.60520   0.89480   0.25000   0.00000  Uiso   1.00
C59    C     0.39480   0.10520   0.75000   0.00000  Uiso   1.00
C60    C     0.89480   0.39480   0.25000   0.00000  Uiso   1.00
C61    C     0.10520   0.60520   0.75000   0.00000  Uiso   1.00
C62    C     0.39480   0.10520   0.25000   0.00000  Uiso   1.00
C63    C     0.72867   0.22867   0.75000   0.00000  Uiso   1.00
C64    C     0.60520   0.89480   0.75000   0.00000  Uiso   1.00
C65    C     0.89480   0.60520   0.75000   0.00000  Uiso   1.00
C66    C     0.10520   0.39480   0.25000   0.00000  Uiso   1.00
C67    C     0.39480   0.89480   0.75000   0.00000  Uiso   1.00
C68    C     0.60520   0.10520   0.25000   0.00000  Uiso   1.00
C69    C     0.10520   0.39480   0.75000   0.00000  Uiso   1.00
C70    C     0.89480   0.60520   0.25000   0.00000  Uiso   1.00
C71    C     0.60520   0.10520   0.75000   0.00000  Uiso   1.00
C72    C     0.39480   0.89480   0.25000   0.00000  Uiso   1.00
C73    C     0.19262   0.27632   0.20158   0.00000  Uiso   1.00
C74    C     0.77133   0.72867   0.25000   0.00000  Uiso   1.00
C75    C     0.82340   0.73971   0.77348   0.00000  Uiso   1.00
C76    C     0.27623   0.80747   0.20165   0.00000  Uiso   1.00
C77    C     0.72376   0.19254   0.79836   0.00000  Uiso   1.00
C78    C     0.80740   0.72370   0.20159   0.00000  Uiso   1.00
C79    C     0.17661   0.26031   0.77352   0.00000  Uiso   1.00
C80    C     0.72377   0.19253   0.20165   0.00000  Uiso   1.00
C81    C     0.27622   0.80747   0.79835   0.00000  Uiso   1.00
C82    C     0.82340   0.26029   0.77347   0.00000  Uiso   1.00
C83    C     0.17660   0.73970   0.22651   0.00000  Uiso   1.00
C84    C     0.72376   0.80746   0.79836   0.00000  Uiso   1.00
C85    C     0.22867   0.27133   0.75000   0.00000  Uiso   1.00
C86    C     0.26034   0.17665   0.22638   0.00000  Uiso   1.00
C87    C     0.17659   0.73971   0.77346   0.00000  Uiso   1.00
C88    C     0.82339   0.26030   0.22652   0.00000  Uiso   1.00
C89    C     0.27626   0.19256   0.79838   0.00000  Uiso   1.00
C90    C     0.73967   0.82336   0.22640   0.00000  Uiso   1.00
C91    C     0.69254   0.77623   0.70164   0.00000  Uiso   1.00
C92    C     0.32335   0.23966   0.27362   0.00000  Uiso   1.00
C93    C     0.76029   0.32340   0.72652   0.00000  Uiso   1.00
C94    C     0.23970   0.67661   0.27348   0.00000  Uiso   1.00
C95    C     0.30744   0.22374   0.70162   0.00000  Uiso   1.00
C96    C     0.72867   0.22867   0.25000   0.00000  Uiso   1.00
C97    C     0.67664   0.76033   0.27360   0.00000  Uiso   1.00
C98    C     0.23971   0.67659   0.72654   0.00000  Uiso   1.00
C99    C     0.76030   0.32340   0.27348   0.00000  Uiso   1.00
C100   C     0.30746   0.77623   0.29835   0.00000  Uiso   1.00
C101   C     0.69254   0.22377   0.70164   0.00000  Uiso   1.00
C102   C     0.22368   0.30738   0.29842   0.00000  Uiso   1.00
C103   C     0.76029   0.67660   0.72652   0.00000  Uiso   1.00
C104   C     0.69253   0.22377   0.29835   0.00000  Uiso   1.00
C105   C     0.30747   0.77622   0.70165   0.00000  Uiso   1.00
C106   C     0.77630   0.69260   0.29841   0.00000  Uiso   1.00
C107   C     0.27133   0.77133   0.75000   0.00000  Uiso   1.00
C108   C     0.23969   0.32339   0.72648   0.00000  Uiso   1.00
C109   C     0.15212   0.31629   0.20180   0.00000  Uiso   1.00
C110   C     0.86349   0.69934   0.77388   0.00000  Uiso   1.00
C111   C     0.31620   0.84796   0.20187   0.00000  Uiso   1.00
C112   C     0.68380   0.15205   0.79814   0.00000  Uiso   1.00
C113   C     0.84790   0.68373   0.20181   0.00000  Uiso   1.00
C114   C     0.13652   0.30068   0.77393   0.00000  Uiso   1.00
C115   C     0.68380   0.15204   0.20187   0.00000  Uiso   1.00
C116   C     0.31619   0.84797   0.79813   0.00000  Uiso   1.00
C117   C     0.86349   0.30066   0.77388   0.00000  Uiso   1.00
C118   C     0.77133   0.27133   0.75000   0.00000  Uiso   1.00
C119   C     0.13651   0.69933   0.22611   0.00000  Uiso   1.00
C120   C     0.68380   0.84795   0.79814   0.00000  Uiso   1.00
C121   C     0.30071   0.13656   0.22597   0.00000  Uiso   1.00
C122   C     0.13650   0.69934   0.77387   0.00000  Uiso   1.00
C123   C     0.86349   0.30067   0.22611   0.00000  Uiso   1.00
C124   C     0.31622   0.15207   0.79816   0.00000  Uiso   1.00
C125   C     0.69930   0.86345   0.22599   0.00000  Uiso   1.00
C126   C     0.65205   0.81620   0.70186   0.00000  Uiso   1.00
C127   C     0.36344   0.19929   0.27403   0.00000  Uiso   1.00
C128   C     0.80066   0.36350   0.72612   0.00000  Uiso   1.00
H1     H     0.19611   0.24981   0.16315   0.00000  Uiso   1.00
H2     H     0.16658   0.77973   0.20913   0.00000  Uiso   1.00
H3     H     0.75035   0.80403   0.83674   0.00000  Uiso   1.00
H4     H     0.22033   0.16665   0.20888   0.00000  Uiso   1.00
H5     H     0.16656   0.77975   0.79084   0.00000  Uiso   1.00
H6     H     0.83342   0.22027   0.20913   0.00000  Uiso   1.00
H7     H     0.24969   0.19601   0.83678   0.00000  Uiso   1.00
H8     H     0.77967   0.83335   0.20892   0.00000  Uiso   1.00
H9     H     0.69597   0.74965   0.66326   0.00000  Uiso   1.00
H10    H     0.33335   0.27967   0.29112   0.00000  Uiso   1.00
H11    H     0.72025   0.33343   0.70914   0.00000  Uiso   1.00
H12    H     0.83343   0.77974   0.79086   0.00000  Uiso   1.00
H13    H     0.27973   0.66658   0.29087   0.00000  Uiso   1.00
H14    H     0.30399   0.25031   0.66322   0.00000  Uiso   1.00
H15    H     0.66665   0.72033   0.29108   0.00000  Uiso   1.00
H16    H     0.27975   0.66656   0.70916   0.00000  Uiso   1.00
H17    H     0.72026   0.33342   0.29087   0.00000  Uiso   1.00
H18    H     0.30404   0.74964   0.33673   0.00000  Uiso   1.00
H19    H     0.69597   0.25035   0.66326   0.00000  Uiso   1.00
H20    H     0.25019   0.30389   0.33685   0.00000  Uiso   1.00
H21    H     0.72026   0.66657   0.70914   0.00000  Uiso   1.00
H22    H     0.69596   0.25036   0.33673   0.00000  Uiso   1.00
H23    H     0.24964   0.80404   0.16327   0.00000  Uiso   1.00
H24    H     0.30406   0.74962   0.66327   0.00000  Uiso   1.00
H25    H     0.74977   0.69608   0.33683   0.00000  Uiso   1.00
H26    H     0.27972   0.33341   0.70905   0.00000  Uiso   1.00
H27    H     0.12491   0.31939   0.16388   0.00000  Uiso   1.00
H28    H     0.90336   0.70889   0.79211   0.00000  Uiso   1.00
H29    H     0.31922   0.87525   0.16400   0.00000  Uiso   1.00
H30    H     0.68077   0.12477   0.83601   0.00000  Uiso   1.00
H31    H     0.87513   0.68065   0.16391   0.00000  Uiso   1.00
H32    H     0.09667   0.29113   0.79219   0.00000  Uiso   1.00
H33    H     0.68078   0.12475   0.16401   0.00000  Uiso   1.00
H34    H     0.75035   0.19597   0.83674   0.00000  Uiso   1.00
H35    H     0.31920   0.87526   0.83599   0.00000  Uiso   1.00
H36    H     0.90336   0.29111   0.79210   0.00000  Uiso   1.00
H37    H     0.09666   0.70888   0.20787   0.00000  Uiso   1.00
H38    H     0.68077   0.87523   0.83601   0.00000  Uiso   1.00
H39    H     0.29119   0.09673   0.20763   0.00000  Uiso   1.00
H40    H     0.09664   0.70890   0.79209   0.00000  Uiso   1.00
H41    H     0.90334   0.29112   0.20787   0.00000  Uiso   1.00
H42    H     0.31927   0.12481   0.83604   0.00000  Uiso   1.00
H43    H     0.70882   0.90328   0.20767   0.00000  Uiso   1.00
H44    H     0.62477   0.81923   0.66399   0.00000  Uiso   1.00
H45    H     0.80392   0.75023   0.16317   0.00000  Uiso   1.00
H46    H     0.40327   0.20881   0.29237   0.00000  Uiso   1.00
H47    H     0.79111   0.40336   0.70789   0.00000  Uiso   1.00
H48    H     0.20888   0.59666   0.29213   0.00000  Uiso   1.00
H49    H     0.37519   0.18073   0.66396   0.00000  Uiso   1.00
H50    H     0.59672   0.79118   0.29233   0.00000  Uiso   1.00
H51    H     0.20889   0.59664   0.70791   0.00000  Uiso   1.00
H52    H     0.79112   0.40334   0.29213   0.00000  Uiso   1.00
H53    H     0.37524   0.81922   0.33600   0.00000  Uiso   1.00
H54    H     0.62477   0.18077   0.66399   0.00000  Uiso   1.00
H55    H     0.18061   0.37509   0.33612   0.00000  Uiso   1.00
H56    H     0.16659   0.22028   0.79094   0.00000  Uiso   1.00
H57    H     0.79111   0.59664   0.70789   0.00000  Uiso   1.00
H58    H     0.62475   0.18078   0.33599   0.00000  Uiso   1.00
H59    H     0.37526   0.81921   0.66401   0.00000  Uiso   1.00
H60    H     0.81935   0.62487   0.33609   0.00000  Uiso   1.00
H61    H     0.20887   0.40333   0.70781   0.00000  Uiso   1.00
H62    H     0.75036   0.19596   0.16327   0.00000  Uiso   1.00
H63    H     0.24962   0.80406   0.83673   0.00000  Uiso   1.00
H64    H     0.83343   0.22025   0.79086   0.00000  Uiso   1.00
O1     O    -0.00000   0.50000   0.25000   0.00000  Uiso   1.00
O2     O     0.00000   0.45454   0.88202   0.00000  Uiso   1.00
O3     O     0.54546   0.00000   0.11798   0.00000  Uiso   1.00
O4     O     0.45454   0.00000   0.88202   0.00000  Uiso   1.00
O5     O     0.50000   0.95454   0.61798   0.00000  Uiso   1.00
O6     O     0.50000   0.04546   0.38202   0.00000  Uiso   1.00
O7     O     0.95454   0.50000   0.61798   0.00000  Uiso   1.00
O8     O     0.04546   0.50000   0.38202   0.00000  Uiso   1.00
O9     O     0.50000   0.04546   0.61798   0.00000  Uiso   1.00
O10    O     0.50000   0.95454   0.38202   0.00000  Uiso   1.00
O11    O     0.04546   0.50000   0.61798   0.00000  Uiso   1.00
O12    O    -0.00000   0.50000   0.75000   0.00000  Uiso   1.00
O13    O     0.95454   0.50000   0.38202   0.00000  Uiso   1.00
O14    O     0.06399   0.60947   0.21539   0.00000  Uiso   1.00
O15    O     0.93601   0.39053   0.78461   0.00000  Uiso   1.00
O16    O     0.60947   0.93601   0.21539   0.00000  Uiso   1.00
O17    O     0.39053   0.06399   0.78461   0.00000  Uiso   1.00
O18    O     0.93601   0.39053   0.21539   0.00000  Uiso   1.00
O19    O     0.06399   0.60947   0.78461   0.00000  Uiso   1.00
O20    O     0.39053   0.06399   0.21539   0.00000  Uiso   1.00
O21    O     0.60947   0.93601   0.78461   0.00000  Uiso   1.00
O22    O     0.93601   0.60947   0.78461   0.00000  Uiso   1.00
O23    O     0.50000   0.00000   0.25000   0.00000  Uiso   1.00
O24    O     0.06399   0.39053   0.21539   0.00000  Uiso   1.00
O25    O     0.39053   0.93601   0.78461   0.00000  Uiso   1.00
O26    O     0.60947   0.06399   0.21539   0.00000  Uiso   1.00
O27    O     0.06399   0.39053   0.78461   0.00000  Uiso   1.00
O28    O     0.93601   0.60947   0.21539   0.00000  Uiso   1.00
O29    O     0.60947   0.06399   0.78461   0.00000  Uiso   1.00
O30    O     0.39053   0.93601   0.21539   0.00000  Uiso   1.00
O31    O     0.56399   0.10947   0.71539   0.00000  Uiso   1.00
O32    O     0.43601   0.89053   0.28461   0.00000  Uiso   1.00
O33    O     0.10947   0.43601   0.71539   0.00000  Uiso   1.00
O34    O     0.50000   0.00000   0.75000   0.00000  Uiso   1.00
O35    O     0.89053   0.56399   0.28461   0.00000  Uiso   1.00
O36    O     0.43601   0.89053   0.71539   0.00000  Uiso   1.00
O37    O     0.56399   0.10947   0.28461   0.00000  Uiso   1.00
O38    O     0.89053   0.56399   0.71539   0.00000  Uiso   1.00
O39    O     0.10947   0.43601   0.28461   0.00000  Uiso   1.00
O40    O     0.43601   0.10947   0.28461   0.00000  Uiso   1.00
O41    O     0.56399   0.89053   0.71539   0.00000  Uiso   1.00
O42    O     0.89053   0.43601   0.28461   0.00000  Uiso   1.00
O43    O     0.10947   0.56399   0.71539   0.00000  Uiso   1.00
O44    O     0.56399   0.89053   0.28461   0.00000  Uiso   1.00
O45    O    -0.00000   0.45454   0.11798   0.00000  Uiso   1.00
O46    O     0.43601   0.10947   0.71539   0.00000  Uiso   1.00
O47    O     0.10947   0.56399   0.28461   0.00000  Uiso   1.00
O48    O     0.89053   0.43601   0.71539   0.00000  Uiso   1.00
O49    O    -0.00000   0.54546   0.88202   0.00000  Uiso   1.00
O50    O     0.45454   0.00000   0.11798   0.00000  Uiso   1.00
O51    O     0.54546   0.00000   0.88202   0.00000  Uiso   1.00
O52    O     0.00000   0.54546   0.11798   0.00000  Uiso   1.00
Zn1    Zn    0.06497   0.50000   0.29947   0.00000  Uiso   1.00
Zn2    Zn    0.43503   0.00000   0.20053   0.00000  Uiso   1.00
Zn3    Zn    0.00000   0.43503   0.79947   0.00000  Uiso   1.00
Zn4    Zn    0.00000   0.56497   0.20053   0.00000  Uiso   1.00
Zn5    Zn    0.43503   0.00000   0.79947   0.00000  Uiso   1.00
Zn6    Zn    0.56497   0.00000   0.20053   0.00000  Uiso   1.00
Zn7    Zn    0.00000   0.56497   0.79947   0.00000  Uiso   1.00
Zn8    Zn    0.00000   0.43503   0.20053   0.00000  Uiso   1.00
Zn9    Zn    0.93503   0.50000   0.70053   0.00000  Uiso   1.00
Zn10   Zn    0.50000   0.93503   0.29947   0.00000  Uiso   1.00
Zn11   Zn    0.50000   0.06497   0.70053   0.00000  Uiso   1.00
Zn12   Zn    0.93503   0.50000   0.29947   0.00000  Uiso   1.00
Zn13   Zn    0.06497   0.50000   0.70053   0.00000  Uiso   1.00
Zn14   Zn    0.50000   0.06497   0.29947   0.00000  Uiso   1.00
Zn15   Zn    0.50000   0.93503   0.70053   0.00000  Uiso   1.00
Zn16   Zn    0.56497   0.00000   0.79947   0.00000  Uiso   1.00
loop_
_geom_bond_atom_site_label_1
_geom_bond_atom_site_label_2
_geom_bond_distance
_geom_bond_site_symmetry_2
_ccdc_geom_bond_type
C1     C24     1.476   .     S
C1     C73     1.405   .     A
C1     C102    1.405   .     A
C2     C83     1.405   .     A
C2     C94     1.405   .     A
C2     C52     1.476   .     S
C3     C27     1.402   .     A
C3     C94     1.392   .     A
C3     H48     1.083   .     S
C4     H49     1.083   .     S
C4     C95     1.392   .     A
C4     C32     1.402   .     A
C5     C33     1.402   .     A
C5     C97     1.392   .     A
C5     H50     1.083   .     S
C6     H51     1.083   .     S
C6     C98     1.392   .     A
C6     C30     1.402   .     A
C7     C99     1.392   .     A
C7     C31     1.402   .     A
C7     H52     1.083   .     S
C8     H53     1.083   .     S
C8     C19     1.402   .     A
C8     C100    1.392   .     A
C9     H54     1.083   .     S
C9     C20     1.402   .     A
C9     C101    1.392   .     A
C10    C17     1.402   .     A
C10    H55     1.083   .     S
C10    C102    1.392   .     A
C11    C18     1.402   .     A
C11    H57     1.083   .     S
C11    C103    1.392   .     A
C12    C104    1.392   .     A
C12    H58     1.083   .     S
C12    C23     1.402   .     A
C13    C41     1.476   .     S
C13    C84     1.405   .     A
C13    C91     1.405   .     A
C14    C105    1.392   .     A
C14    C25     1.402   .     A
C14    H59     1.083   .     S
C15    C106    1.392   .     A
C15    H60     1.083   .     S
C15    C21     1.402   .     A
C16    C108    1.392   .     A
C16    C22     1.402   .     A
C16    H61     1.083   .     S
C17    C66     1.465   .     S
C17    C109    1.402   .     A
C18    C65     1.465   .     S
C18    C110    1.402   .     A
C19    C72     1.465   .     S
C19    C111    1.402   .     A
C20    C112    1.402   .     A
C20    C71     1.465   .     S
C21    C113    1.402   .     A
C21    C70     1.465   .     S
C22    C69     1.465   .     S
C22    C114    1.402   .     A
C23    C68     1.465   .     S
C23    C115    1.402   .     A
C24    C92     1.405   .     A
C24    C86     1.405   .     A
C25    C116    1.402   .     A
C25    C67     1.465   .     S
C26    C117    1.402   .     A
C26    C128    1.402   .     A
C26    C57     1.465   .     S
C27    C119    1.402   .     A
C27    C56     1.465   .     S
C28    C126    1.402   .     A
C28    C120    1.402   .     A
C28    C64     1.465   .     S
C29    C121    1.402   .     A
C29    C62     1.465   .     S
C29    C127    1.402   .     A
C30    C122    1.402   .     A
C30    C61     1.465   .     S
C31    C123    1.402   .     A
C31    C60     1.465   .     S
C32    C124    1.402   .     A
C32    C59     1.465   .     S
C33    C58     1.465   .     S
C33    C125    1.402   .     A
C34    C107    1.476   .     S
C34    C98     1.405   .     A
C34    C87     1.405   .     A
C35    C96     1.476   .     S
C35    C99     1.405   .     A
C35    C88     1.405   .     A
C36    C89     1.405   .     A
C36    C85     1.476   .     S
C36    C95     1.405   .     A
C37    C74     1.476   .     S
C37    C90     1.405   .     A
C37    C97     1.405   .     A
C38    C55     1.421   .     S
C38    C39     1.198   .     T
C39    C54     1.421   .     S
C40    C42     1.198   .     T
C40    C53     1.421   .     S
C41    C75     1.405   .     A
C41    C103    1.405   .     A
C42    C51     1.421   .     S
C43    C50     1.421   .     S
C43    C44     1.198   1_556 S
C44    C49     1.421   .     S
C44    C43     1.198   1_554 S
C45    C46     1.198   1_556 S
C45    C48     1.421   .     S
C46    C45     1.198   1_554 S
C46    C47     1.421   .     S
C47    O45     1.277   .     A
C47    O52     1.277   .     S
C48    O2      1.277   .     A
C48    O49     1.277   .     S
C49    O50     1.277   .     A
C49    O3      1.277   .     A
C50    O4      1.277   .     A
C50    O51     1.277   .     A
C51    O9      1.277   .     A
C51    O5      1.277   1_545 S
C52    C100    1.405   .     A
C52    C76     1.405   .     A
C53    O6      1.277   .     A
C53    O10     1.277   1_545 S
C54    O7      1.277   1_455 A
C54    O11     1.277   .     S
C55    O8      1.277   .     A
C55    O13     1.277   1_455 S
C56    O47     1.277   .     A
C56    O14     1.277   .     A
C57    O15     1.277   .     A
C57    O48     1.277   .     A
C58    O44     1.277   .     A
C58    O16     1.277   .     A
C59    O46     1.277   .     A
C59    O17     1.277   .     A
C60    O42     1.277   .     A
C60    O18     1.277   .     A
C61    O19     1.277   .     A
C61    O43     1.277   .     A
C62    O20     1.277   .     A
C62    O40     1.277   .     A
C63    C101    1.405   .     A
C63    C118    1.476   .     S
C63    C77     1.405   .     A
C64    O21     1.277   .     A
C64    O41     1.277   .     A
C65    O38     1.277   .     A
C65    O22     1.277   .     A
C66    O39     1.277   .     A
C66    O24     1.277   .     A
C67    O25     1.277   .     A
C67    O36     1.277   .     A
C68    O26     1.277   .     A
C68    O37     1.277   .     A
C69    O27     1.277   .     A
C69    O33     1.277   .     A
C70    O35     1.277   .     A
C70    O28     1.277   .     A
C71    O29     1.277   .     A
C71    O31     1.277   .     A
C72    O32     1.277   .     A
C72    O30     1.277   .     A
C73    H1      1.083   .     S
C73    C109    1.392   .     A
C74    C106    1.405   .     A
C74    C78     1.405   .     A
C75    H12     1.083   .     S
C75    C110    1.392   .     A
C76    H23     1.083   .     S
C76    C111    1.392   .     A
C77    C112    1.392   .     A
C77    H34     1.083   .     S
C78    C113    1.392   .     A
C78    H45     1.083   .     S
C79    H56     1.083   .     S
C79    C85     1.405   .     A
C79    C114    1.392   .     A
C80    C96     1.405   .     A
C80    C115    1.392   .     A
C80    H62     1.083   .     S
C81    C107    1.405   .     A
C81    H63     1.083   .     S
C81    C116    1.392   .     A
C82    H64     1.083   .     S
C82    C117    1.392   .     A
C82    C118    1.405   .     A
C83    C119    1.392   .     A
C83    H2      1.083   .     S
C84    C120    1.392   .     A
C84    H3      1.083   .     S
C85    C108    1.405   .     A
C86    C121    1.392   .     A
C86    H4      1.083   .     S
C87    H5      1.083   .     S
C87    C122    1.392   .     A
C88    C123    1.392   .     A
C88    H6      1.083   .     S
C89    H7      1.083   .     S
C89    C124    1.392   .     A
C90    H8      1.083   .     S
C90    C125    1.392   .     A
C91    C126    1.392   .     A
C91    H9      1.083   .     S
C92    H10     1.083   .     S
C92    C127    1.392   .     A
C93    H11     1.083   .     S
C93    C118    1.405   .     A
C93    C128    1.392   .     A
C94    H13     1.083   .     S
C95    H14     1.083   .     S
C96    C104    1.405   .     A
C97    H15     1.083   .     S
C98    H16     1.083   .     S
C99    H17     1.083   .     S
C100   H18     1.083   .     S
C101   H19     1.083   .     S
C102   H20     1.083   .     S
C103   H21     1.083   .     S
C104   H22     1.083   .     S
C105   C107    1.405   .     A
C105   H24     1.083   .     S
C106   H25     1.083   .     S
C108   H26     1.083   .     S
C109   H27     1.083   .     S
C110   H28     1.083   .     S
C111   H29     1.083   .     S
C112   H30     1.083   .     S
C113   H31     1.083   .     S
C114   H32     1.083   .     S
C115   H33     1.083   .     S
C116   H35     1.083   .     S
C117   H36     1.083   .     S
C119   H37     1.083   .     S
C120   H38     1.083   .     S
C121   H39     1.083   .     S
C122   H40     1.083   .     S
C123   H41     1.083   .     S
C124   H42     1.083   .     S
C125   H43     1.083   .     S
C126   H44     1.083   .     S
C127   H46     1.083   .     S
C128   H47     1.083   .     S
O1     Zn12    1.939   1_455 S
O1     Zn1     1.939   .     S
O1     Zn4     1.939   .     S
O1     Zn8     1.939   .     S
O2     Zn3     1.913   .     S
O3     Zn6     1.913   .     S
O4     Zn5     1.913   .     S
O5     Zn15    1.913   .     S
O5     C51     1.277   1_565 S
O6     Zn14    1.913   .     S
O7     Zn9     1.913   .     S
O7     C54     1.277   1_655 A
O8     Zn1     1.913   .     S
O9     Zn11    1.913   .     S
O10    Zn10    1.913   .     S
O10    C53     1.277   1_565 S
O11    Zn13    1.913   .     S
O12    Zn9     1.939   1_455 S
O12    Zn3     1.939   .     S
O12    Zn7     1.939   .     S
O12    Zn13    1.939   .     S
O13    Zn12    1.913   .     S
O13    C55     1.277   1_655 S
O14    Zn4     1.936   .     S
O15    Zn3     1.936   1_655 S
O16    Zn6     1.936   1_565 S
O17    Zn5     1.936   .     S
O18    Zn8     1.936   1_655 S
O19    Zn7     1.936   .     S
O20    Zn2     1.936   .     S
O21    Zn16    1.936   1_565 S
O22    Zn7     1.936   1_655 S
O23    Zn6     1.939   .     S
O23    Zn14    1.939   .     S
O23    Zn2     1.939   .     S
O23    Zn10    1.939   1_545 S
O24    Zn8     1.936   .     S
O25    Zn5     1.936   1_565 S
O26    Zn6     1.936   .     S
O27    Zn3     1.936   .     S
O28    Zn4     1.936   1_655 S
O29    Zn16    1.936   .     S
O30    Zn2     1.936   1_565 S
O31    Zn11    1.936   .     S
O32    Zn10    1.936   .     S
O33    Zn13    1.936   .     S
O34    Zn5     1.939   .     S
O34    Zn16    1.939   .     S
O34    Zn11    1.939   .     S
O34    Zn15    1.939   1_545 S
O35    Zn12    1.936   .     S
O36    Zn15    1.936   .     S
O37    Zn14    1.936   .     S
O38    Zn9     1.936   .     S
O39    Zn1     1.936   .     S
O40    Zn14    1.936   .     S
O41    Zn15    1.936   .     S
O42    Zn12    1.936   .     S
O43    Zn13    1.936   .     S
O44    Zn10    1.936   .     S
O45    Zn8     1.913   .     S
O46    Zn11    1.936   .     S
O47    Zn1     1.936   .     S
O48    Zn9     1.936   .     S
O49    Zn7     1.913   .     S
O50    Zn2     1.913   .     S
O51    Zn16    1.913   .     S
O52    Zn4     1.913   .     S
Zn2    O30     1.936   1_545 S
Zn3    O15     1.936   1_455 S
Zn4    O28     1.936   1_455 S
Zn5    O25     1.936   1_545 S
Zn6    O16     1.936   1_545 S
Zn7    O22     1.936   1_455 S
Zn8    O18     1.936   1_455 S
Zn9    O12     1.939   1_655 S
Zn10   O23     1.939   1_565 S
Zn12   O1      1.939   1_655 S
Zn15   O34     1.939   1_565 S
Zn16   O21     1.936   1_545 S
