data_str_m1_o2_o5_pcu_sym.5
_audit_creation_date              2020-01-03
_audit_creation_method            'Materials Studio'
_symmetry_space_group_name_H-M    'P1'
_symmetry_Int_Tables_number       1
_symmetry_cell_setting            triclinic
loop_
_symmetry_equiv_pos_as_xyz
  x,y,z
_cell_length_a                    24.5110
_cell_length_b                    24.5110
_cell_length_c                    22.3946
_cell_angle_alpha                 90.0000
_cell_angle_beta                  89.9999
_cell_angle_gamma                 89.9996
loop_
_atom_site_label
_atom_site_type_symbol
_atom_site_fract_x
_atom_site_fract_y
_atom_site_fract_z
_atom_site_U_iso_or_equiv
_atom_site_adp_type
_atom_site_occupancy
C1     C     0.22889   0.27111   0.25000   0.00000  Uiso   1.00
C2     C     0.22897   0.72897   0.25000   0.00000  Uiso   1.00
C3     C     0.17893   0.65851   0.30230   0.00000  Uiso   1.00
C4     C     0.34140   0.17883   0.69765   0.00000  Uiso   1.00
C5     C     0.65860   0.82117   0.30234   0.00000  Uiso   1.00
C6     C     0.17885   0.65858   0.69767   0.00000  Uiso   1.00
C7     C     0.82108   0.34148   0.30231   0.00000  Uiso   1.00
C8     C     0.36560   0.79714   0.26332   0.00000  Uiso   1.00
C9     C     0.63441   0.20285   0.73661   0.00000  Uiso   1.00
C10    C     0.20285   0.36558   0.26341   0.00000  Uiso   1.00
C11    C     0.79714   0.63439   0.73670   0.00000  Uiso   1.00
C12    C     0.63440   0.20286   0.26333   0.00000  Uiso   1.00
C13    C     0.72897   0.77103   0.75000   0.00000  Uiso   1.00
C14    C     0.36558   0.79715   0.73661   0.00000  Uiso   1.00
C15    C     0.79715   0.63442   0.26340   0.00000  Uiso   1.00
C16    C     0.20285   0.36558   0.73660   0.00000  Uiso   1.00
C17    C     0.14788   0.35212   0.25000   0.00000  Uiso   1.00
C18    C     0.85213   0.64787   0.75000   0.00000  Uiso   1.00
C19    C     0.35213   0.85213   0.25000   0.00000  Uiso   1.00
C20    C     0.64787   0.14788   0.75000   0.00000  Uiso   1.00
C21    C     0.85212   0.64788   0.25000   0.00000  Uiso   1.00
C22    C     0.14787   0.35212   0.75000   0.00000  Uiso   1.00
C23    C     0.64787   0.14787   0.25000   0.00000  Uiso   1.00
C24    C     0.27104   0.22896   0.25000   0.00000  Uiso   1.00
C25    C     0.35212   0.85213   0.75000   0.00000  Uiso   1.00
C26    C     0.85207   0.35207   0.75000   0.00000  Uiso   1.00
C27    C     0.14793   0.64793   0.25000   0.00000  Uiso   1.00
C28    C     0.64793   0.85207   0.75000   0.00000  Uiso   1.00
C29    C     0.35207   0.14793   0.25000   0.00000  Uiso   1.00
C30    C     0.14793   0.64793   0.75000   0.00000  Uiso   1.00
C31    C     0.85207   0.35207   0.25000   0.00000  Uiso   1.00
C32    C     0.35207   0.14793   0.75000   0.00000  Uiso   1.00
C33    C     0.64793   0.85207   0.25000   0.00000  Uiso   1.00
C34    C     0.07908   0.27960   0.22516   0.00000  Uiso   1.00
C35    C     0.22896   0.72897   0.75000   0.00000  Uiso   1.00
C36    C     0.92096   0.72041   0.77463   0.00000  Uiso   1.00
C37    C     0.27959   0.92096   0.22535   0.00000  Uiso   1.00
C38    C     0.72040   0.07907   0.77479   0.00000  Uiso   1.00
C39    C     0.92092   0.72040   0.22518   0.00000  Uiso   1.00
C40    C     0.07907   0.27960   0.77482   0.00000  Uiso   1.00
C41    C     0.72041   0.07904   0.22532   0.00000  Uiso   1.00
C42    C     0.27960   0.92093   0.77480   0.00000  Uiso   1.00
C43    C     0.86923   0.33097   0.85824   0.00000  Uiso   1.00
C44    C     0.13062   0.66919   0.14182   0.00000  Uiso   1.00
C45    C     0.66928   0.86946   0.85815   0.00000  Uiso   1.00
C46    C     0.77103   0.27103   0.25000   0.00000  Uiso   1.00
C47    C     0.33107   0.13085   0.14172   0.00000  Uiso   1.00
C48    C     0.13078   0.66902   0.85824   0.00000  Uiso   1.00
C49    C     0.86935   0.33084   0.14181   0.00000  Uiso   1.00
C50    C     0.33103   0.13082   0.85827   0.00000  Uiso   1.00
C51    C     0.66897   0.86918   0.14174   0.00000  Uiso   1.00
C52    C     0.63054   0.83072   0.64185   0.00000  Uiso   1.00
C53    C     0.36915   0.16893   0.35828   0.00000  Uiso   1.00
C54    C     0.83098   0.36922   0.64176   0.00000  Uiso   1.00
C55    C     0.16918   0.63063   0.35818   0.00000  Uiso   1.00
C56    C     0.36918   0.16897   0.64173   0.00000  Uiso   1.00
C57    C     0.27104   0.22896   0.75000   0.00000  Uiso   1.00
C58    C     0.63082   0.83103   0.35826   0.00000  Uiso   1.00
C59    C     0.16903   0.63076   0.64176   0.00000  Uiso   1.00
C60    C     0.83083   0.36936   0.35819   0.00000  Uiso   1.00
C61    C     0.42096   0.77959   0.27466   0.00000  Uiso   1.00
C62    C     0.57907   0.22040   0.72520   0.00000  Uiso   1.00
C63    C     0.22040   0.42092   0.27484   0.00000  Uiso   1.00
C64    C     0.77959   0.57904   0.72538   0.00000  Uiso   1.00
C65    C     0.57904   0.22041   0.27467   0.00000  Uiso   1.00
C66    C     0.42093   0.77960   0.72521   0.00000  Uiso   1.00
C67    C     0.77960   0.57908   0.27482   0.00000  Uiso   1.00
C68    C     0.72896   0.77104   0.25000   0.00000  Uiso   1.00
C69    C     0.22040   0.42093   0.72518   0.00000  Uiso   1.00
C70    C    -0.00000   0.50000   0.47329   0.00000  Uiso   1.00
C71    C     0.00000   0.50000   0.52671   0.00000  Uiso   1.00
C72    C     0.50000   0.00000   0.47329   0.00000  Uiso   1.00
C73    C     0.77112   0.72888   0.75000   0.00000  Uiso   1.00
C74    C     0.50000   0.00000   0.52671   0.00000  Uiso   1.00
C75    C     0.50000   0.00000   0.97329   0.00000  Uiso   1.00
C76    C     0.50000   0.00000   0.02671   0.00000  Uiso   1.00
C77    C    -0.00000   0.50000   0.97329   0.00000  Uiso   1.00
C78    C    -0.00000   0.50000   0.02671   0.00000  Uiso   1.00
C79    C     0.00000   0.50000   0.09006   0.00000  Uiso   1.00
C80    C    -0.00000   0.50000   0.90994   0.00000  Uiso   1.00
C81    C     0.50000  -0.00000   0.09006   0.00000  Uiso   1.00
C82    C     0.50000   0.00000   0.90994   0.00000  Uiso   1.00
C83    C     0.50000   0.00000   0.59006   0.00000  Uiso   1.00
C84    C     0.27112   0.77112   0.25000   0.00000  Uiso   1.00
C85    C     0.50000   0.00000   0.40994   0.00000  Uiso   1.00
C86    C    -0.00000   0.50000   0.59006   0.00000  Uiso   1.00
C87    C    -0.00000   0.50000   0.40994   0.00000  Uiso   1.00
C88    C     0.10526   0.60526   0.25000   0.00000  Uiso   1.00
C89    C     0.89474   0.39474   0.75000   0.00000  Uiso   1.00
C90    C     0.60526   0.89474   0.25000   0.00000  Uiso   1.00
C91    C     0.39474   0.10526   0.75000   0.00000  Uiso   1.00
C92    C     0.89474   0.39474   0.25000   0.00000  Uiso   1.00
C93    C     0.10526   0.60526   0.75000   0.00000  Uiso   1.00
C94    C     0.39474   0.10526   0.25000   0.00000  Uiso   1.00
C95    C     0.72888   0.22889   0.75001   0.00000  Uiso   1.00
C96    C     0.60526   0.89473   0.75000   0.00000  Uiso   1.00
C97    C     0.89476   0.60524   0.75000   0.00000  Uiso   1.00
C98    C     0.10524   0.39476   0.25000   0.00000  Uiso   1.00
C99    C     0.39476   0.89476   0.75000   0.00000  Uiso   1.00
C100   C     0.60524   0.10524   0.25000   0.00000  Uiso   1.00
C101   C     0.10524   0.39476   0.75000   0.00000  Uiso   1.00
C102   C     0.89476   0.60524   0.25000   0.00000  Uiso   1.00
C103   C     0.60524   0.10524   0.75000   0.00000  Uiso   1.00
C104   C     0.39476   0.89476   0.25000   0.00000  Uiso   1.00
C105   C     0.17510   0.25742   0.23611   0.00000  Uiso   1.00
C106   C     0.77112   0.72889   0.25000   0.00000  Uiso   1.00
C107   C     0.82493   0.74259   0.76379   0.00000  Uiso   1.00
C108   C     0.25741   0.82492   0.23620   0.00000  Uiso   1.00
C109   C     0.74258   0.17510   0.76388   0.00000  Uiso   1.00
C110   C     0.82490   0.74258   0.23612   0.00000  Uiso   1.00
C111   C     0.17510   0.25742   0.76388   0.00000  Uiso   1.00
C112   C     0.74259   0.17508   0.23619   0.00000  Uiso   1.00
C113   C     0.25742   0.82490   0.76387   0.00000  Uiso   1.00
C114   C     0.80150   0.28065   0.80156   0.00000  Uiso   1.00
C115   C     0.19843   0.71943   0.19847   0.00000  Uiso   1.00
C116   C     0.71947   0.80161   0.80151   0.00000  Uiso   1.00
C117   C     0.22888   0.27112   0.75000   0.00000  Uiso   1.00
C118   C     0.28069   0.19853   0.19842   0.00000  Uiso   1.00
C119   C     0.19849   0.71935   0.80156   0.00000  Uiso   1.00
C120   C     0.80157   0.28058   0.19847   0.00000  Uiso   1.00
C121   C     0.28067   0.19851   0.80157   0.00000  Uiso   1.00
C122   C     0.71933   0.80149   0.19843   0.00000  Uiso   1.00
C123   C     0.69839   0.78053   0.69850   0.00000  Uiso   1.00
C124   C     0.30147   0.21931   0.30158   0.00000  Uiso   1.00
C125   C     0.78065   0.30151   0.69844   0.00000  Uiso   1.00
C126   C     0.21943   0.69842   0.30152   0.00000  Uiso   1.00
C127   C     0.30149   0.21933   0.69843   0.00000  Uiso   1.00
C128   C     0.72888   0.22888   0.25000   0.00000  Uiso   1.00
C129   C     0.69851   0.78067   0.30157   0.00000  Uiso   1.00
C130   C     0.21935   0.69849   0.69844   0.00000  Uiso   1.00
C131   C     0.78058   0.30156   0.30153   0.00000  Uiso   1.00
C132   C     0.32492   0.75741   0.26380   0.00000  Uiso   1.00
C133   C     0.67510   0.24258   0.73613   0.00000  Uiso   1.00
C134   C     0.24258   0.32490   0.26389   0.00000  Uiso   1.00
C135   C     0.75741   0.67507   0.73622   0.00000  Uiso   1.00
C136   C     0.67508   0.24259   0.26381   0.00000  Uiso   1.00
C137   C     0.32490   0.75742   0.73612   0.00000  Uiso   1.00
C138   C     0.75742   0.67510   0.26388   0.00000  Uiso   1.00
C139   C     0.27111   0.77112   0.75000   0.00000  Uiso   1.00
C140   C     0.24258   0.32490   0.73612   0.00000  Uiso   1.00
C141   C     0.13442   0.29715   0.23659   0.00000  Uiso   1.00
C142   C     0.86561   0.70286   0.76331   0.00000  Uiso   1.00
C143   C     0.29714   0.86560   0.23668   0.00000  Uiso   1.00
C144   C     0.70285   0.13442   0.76339   0.00000  Uiso   1.00
C145   C     0.86558   0.70285   0.23660   0.00000  Uiso   1.00
C146   C     0.13442   0.29715   0.76340   0.00000  Uiso   1.00
C147   C     0.70286   0.13440   0.23667   0.00000  Uiso   1.00
C148   C     0.29715   0.86559   0.76339   0.00000  Uiso   1.00
C149   C     0.84142   0.32115   0.80234   0.00000  Uiso   1.00
C150   C     0.77103   0.27104   0.75000   0.00000  Uiso   1.00
C151   C     0.15851   0.67893   0.19770   0.00000  Uiso   1.00
C152   C     0.67898   0.84153   0.80228   0.00000  Uiso   1.00
C153   C     0.32119   0.15862   0.19765   0.00000  Uiso   1.00
C154   C     0.15858   0.67885   0.80233   0.00000  Uiso   1.00
C155   C     0.84148   0.32108   0.19770   0.00000  Uiso   1.00
C156   C     0.32117   0.15860   0.80235   0.00000  Uiso   1.00
C157   C     0.67883   0.84140   0.19766   0.00000  Uiso   1.00
C158   C     0.65847   0.82102   0.69772   0.00000  Uiso   1.00
C159   C     0.34138   0.17881   0.30235   0.00000  Uiso   1.00
C160   C     0.82115   0.34142   0.69767   0.00000  Uiso   1.00
H1     H     0.16479   0.21537   0.22602   0.00000  Uiso   1.00
H2     H     0.20659   0.74301   0.15845   0.00000  Uiso   1.00
H3     H     0.74308   0.79348   0.84151   0.00000  Uiso   1.00
H4     H     0.25719   0.20678   0.15836   0.00000  Uiso   1.00
H5     H     0.20672   0.74288   0.84161   0.00000  Uiso   1.00
H6     H     0.79339   0.25701   0.15845   0.00000  Uiso   1.00
H7     H     0.25716   0.20675   0.84163   0.00000  Uiso   1.00
H8     H     0.74284   0.79325   0.15838   0.00000  Uiso   1.00
H9     H     0.70652   0.75692   0.65849   0.00000  Uiso   1.00
H10    H     0.29322   0.24281   0.34164   0.00000  Uiso   1.00
H11    H     0.75713   0.29328   0.65839   0.00000  Uiso   1.00
H12    H     0.83526   0.78466   0.77380   0.00000  Uiso   1.00
H13    H     0.24301   0.70659   0.34154   0.00000  Uiso   1.00
H14    H     0.29325   0.24284   0.65837   0.00000  Uiso   1.00
H15    H     0.70675   0.75716   0.34162   0.00000  Uiso   1.00
H16    H     0.24288   0.70672   0.65839   0.00000  Uiso   1.00
H17    H     0.75701   0.29339   0.34156   0.00000  Uiso   1.00
H18    H     0.33525   0.71534   0.27382   0.00000  Uiso   1.00
H19    H     0.66478   0.28464   0.72605   0.00000  Uiso   1.00
H20    H     0.28463   0.33521   0.27398   0.00000  Uiso   1.00
H21    H     0.71534   0.66474   0.72621   0.00000  Uiso   1.00
H22    H     0.66475   0.28465   0.27384   0.00000  Uiso   1.00
H23    H     0.21535   0.83525   0.22618   0.00000  Uiso   1.00
H24    H     0.33522   0.71536   0.72604   0.00000  Uiso   1.00
H25    H     0.71537   0.66478   0.27397   0.00000  Uiso   1.00
H26    H     0.28464   0.33522   0.72604   0.00000  Uiso   1.00
H27    H     0.78463   0.16478   0.77396   0.00000  Uiso   1.00
H28    H     0.83522   0.78463   0.22603   0.00000  Uiso   1.00
H29    H     0.16478   0.21536   0.77396   0.00000  Uiso   1.00
H30    H     0.78465   0.16475   0.22617   0.00000  Uiso   1.00
H31    H     0.21536   0.83522   0.77395   0.00000  Uiso   1.00
H32    H     0.79328   0.25713   0.84161   0.00000  Uiso   1.00
N1     N     0.03479   0.26549   0.21603   0.00000  Uiso   1.00
N2     N     0.10837   0.66146   0.09702   0.00000  Uiso   1.00
N3     N     0.66158   0.89174   0.90293   0.00000  Uiso   1.00
N4     N     0.33892   0.10870   0.09689   0.00000  Uiso   1.00
N5     N     0.10859   0.66120   0.90306   0.00000  Uiso   1.00
N6     N     0.89158   0.33860   0.09700   0.00000  Uiso   1.00
N7     N     0.33887   0.10866   0.90310   0.00000  Uiso   1.00
N8     N     0.66113   0.89135   0.09692   0.00000  Uiso   1.00
N9     N     0.60826   0.83842   0.59707   0.00000  Uiso   1.00
N10    N     0.39130   0.16108   0.40312   0.00000  Uiso   1.00
N11    N     0.83880   0.39140   0.59694   0.00000  Uiso   1.00
N12    N     0.96526   0.73453   0.78367   0.00000  Uiso   1.00
N13    N     0.16144   0.60839   0.40298   0.00000  Uiso   1.00
N14    N     0.39134   0.16113   0.59690   0.00000  Uiso   1.00
N15    N     0.60865   0.83887   0.40308   0.00000  Uiso   1.00
N16    N     0.16122   0.60857   0.59694   0.00000  Uiso   1.00
N17    N     0.83858   0.39160   0.40299   0.00000  Uiso   1.00
N18    N     0.46526   0.76547   0.28371   0.00000  Uiso   1.00
N19    N     0.53478   0.23452   0.71608   0.00000  Uiso   1.00
N20    N     0.23451   0.46521   0.28397   0.00000  Uiso   1.00
N21    N     0.76547   0.53474   0.71633   0.00000  Uiso   1.00
N22    N     0.53475   0.23454   0.28372   0.00000  Uiso   1.00
N23    N     0.26546   0.96526   0.21631   0.00000  Uiso   1.00
N24    N     0.46522   0.76548   0.71611   0.00000  Uiso   1.00
N25    N     0.76549   0.53479   0.28395   0.00000  Uiso   1.00
N26    N     0.23451   0.46521   0.71606   0.00000  Uiso   1.00
N27    N     0.73452   0.03478   0.78389   0.00000  Uiso   1.00
N28    N     0.96521   0.73451   0.21606   0.00000  Uiso   1.00
N29    N     0.03479   0.26548   0.78394   0.00000  Uiso   1.00
N30    N     0.73453   0.03475   0.21626   0.00000  Uiso   1.00
N31    N     0.26548   0.96522   0.78392   0.00000  Uiso   1.00
N32    N     0.89143   0.33878   0.90306   0.00000  Uiso   1.00
O1     O     0.00000   0.50000   0.25000   0.00000  Uiso   1.00
O2     O    -0.00000   0.45454   0.88202   0.00000  Uiso   1.00
O3     O     0.54546   0.00000   0.11798   0.00000  Uiso   1.00
O4     O     0.45454   0.00000   0.88202   0.00000  Uiso   1.00
O5     O     0.50000   0.95454   0.61798   0.00000  Uiso   1.00
O6     O     0.50000   0.04546   0.38202   0.00000  Uiso   1.00
O7     O     0.95454   0.50000   0.61798   0.00000  Uiso   1.00
O8     O     0.04546   0.50000   0.38202   0.00000  Uiso   1.00
O9     O     0.50000   0.04546   0.61798   0.00000  Uiso   1.00
O10    O     0.50000   0.95454   0.38202   0.00000  Uiso   1.00
O11    O     0.04546   0.50000   0.61798   0.00000  Uiso   1.00
O12    O     0.00000   0.50000   0.75000   0.00000  Uiso   1.00
O13    O     0.95454   0.50000   0.38202   0.00000  Uiso   1.00
O14    O     0.06399   0.60947   0.21539   0.00000  Uiso   1.00
O15    O     0.93601   0.39053   0.78461   0.00000  Uiso   1.00
O16    O     0.60947   0.93601   0.21539   0.00000  Uiso   1.00
O17    O     0.39053   0.06399   0.78461   0.00000  Uiso   1.00
O18    O     0.93601   0.39053   0.21539   0.00000  Uiso   1.00
O19    O     0.06399   0.60947   0.78461   0.00000  Uiso   1.00
O20    O     0.39053   0.06399   0.21539   0.00000  Uiso   1.00
O21    O     0.60947   0.93601   0.78461   0.00000  Uiso   1.00
O22    O     0.93601   0.60947   0.78461   0.00000  Uiso   1.00
O23    O     0.50000   0.00000   0.25000   0.00000  Uiso   1.00
O24    O     0.06399   0.39053   0.21539   0.00000  Uiso   1.00
O25    O     0.39053   0.93601   0.78461   0.00000  Uiso   1.00
O26    O     0.60947   0.06399   0.21539   0.00000  Uiso   1.00
O27    O     0.06399   0.39053   0.78461   0.00000  Uiso   1.00
O28    O     0.93601   0.60947   0.21539   0.00000  Uiso   1.00
O29    O     0.60947   0.06399   0.78461   0.00000  Uiso   1.00
O30    O     0.39053   0.93601   0.21539   0.00000  Uiso   1.00
O31    O     0.56399   0.10947   0.71539   0.00000  Uiso   1.00
O32    O     0.43601   0.89053   0.28461   0.00000  Uiso   1.00
O33    O     0.10947   0.43601   0.71539   0.00000  Uiso   1.00
O34    O     0.50000   0.00000   0.75000   0.00000  Uiso   1.00
O35    O     0.89053   0.56399   0.28461   0.00000  Uiso   1.00
O36    O     0.43601   0.89053   0.71539   0.00000  Uiso   1.00
O37    O     0.56399   0.10947   0.28461   0.00000  Uiso   1.00
O38    O     0.89053   0.56399   0.71539   0.00000  Uiso   1.00
O39    O     0.10947   0.43601   0.28461   0.00000  Uiso   1.00
O40    O     0.43601   0.10947   0.28461   0.00000  Uiso   1.00
O41    O     0.56399   0.89053   0.71539   0.00000  Uiso   1.00
O42    O     0.89053   0.43601   0.28461   0.00000  Uiso   1.00
O43    O     0.10947   0.56399   0.71539   0.00000  Uiso   1.00
O44    O     0.56399   0.89053   0.28461   0.00000  Uiso   1.00
O45    O     0.00000   0.45454   0.11798   0.00000  Uiso   1.00
O46    O     0.43601   0.10947   0.71539   0.00000  Uiso   1.00
O47    O     0.10947   0.56399   0.28461   0.00000  Uiso   1.00
O48    O     0.89053   0.43601   0.71539   0.00000  Uiso   1.00
O49    O     0.00000   0.54546   0.88202   0.00000  Uiso   1.00
O50    O     0.45454   0.00000   0.11798   0.00000  Uiso   1.00
O51    O     0.54546   0.00000   0.88202   0.00000  Uiso   1.00
O52    O    -0.00000   0.54546   0.11798   0.00000  Uiso   1.00
Zn1    Zn    0.06497   0.50000   0.29947   0.00000  Uiso   1.00
Zn2    Zn    0.43503  -0.00000   0.20053   0.00000  Uiso   1.00
Zn3    Zn    0.00000   0.43503   0.79947   0.00000  Uiso   1.00
Zn4    Zn    0.00000   0.56497   0.20053   0.00000  Uiso   1.00
Zn5    Zn    0.43503   0.00000   0.79947   0.00000  Uiso   1.00
Zn6    Zn    0.56497  -0.00000   0.20053   0.00000  Uiso   1.00
Zn7    Zn    0.00000   0.56497   0.79947   0.00000  Uiso   1.00
Zn8    Zn    0.00000   0.43503   0.20053   0.00000  Uiso   1.00
Zn9    Zn    0.93503   0.50000   0.70053   0.00000  Uiso   1.00
Zn10   Zn    0.50000   0.93503   0.29947   0.00000  Uiso   1.00
Zn11   Zn    0.50000   0.06497   0.70053   0.00000  Uiso   1.00
Zn12   Zn    0.93503   0.50000   0.29947   0.00000  Uiso   1.00
Zn13   Zn    0.06497   0.50000   0.70053   0.00000  Uiso   1.00
Zn14   Zn    0.50000   0.06497   0.29947   0.00000  Uiso   1.00
Zn15   Zn    0.50000   0.93503   0.70053   0.00000  Uiso   1.00
Zn16   Zn    0.56497   0.00000   0.79947   0.00000  Uiso   1.00
loop_
_geom_bond_atom_site_label_1
_geom_bond_atom_site_label_2
_geom_bond_distance
_geom_bond_site_symmetry_2
_ccdc_geom_bond_type
C1     C105    1.395   .     A
C1     C134    1.395   .     A
C1     C24     1.461   .     S
C2     C84     1.461   .     S
C2     C115    1.395   .     A
C2     C126    1.395   .     A
C3     C126    1.394   .     A
C3     C55     1.446   .     S
C3     C27     1.420   .     A
C4     C56     1.446   .     S
C4     C32     1.420   .     A
C4     C127    1.394   .     A
C5     C58     1.446   .     S
C5     C129    1.394   .     A
C5     C33     1.420   .     A
C6     C130    1.394   .     A
C6     C30     1.420   .     A
C6     C59     1.446   .     S
C7     C131    1.394   .     A
C7     C31     1.420   .     A
C7     C60     1.446   .     S
C8     C132    1.394   .     A
C8     C61     1.446   .     S
C8     C19     1.419   .     A
C9     C20     1.419   .     A
C9     C62     1.446   .     S
C9     C133    1.394   .     A
C10    C63     1.446   .     S
C10    C17     1.419   .     A
C10    C134    1.394   .     A
C11    C18     1.419   .     A
C11    C64     1.446   .     S
C11    C135    1.394   .     A
C12    C23     1.419   .     A
C12    C65     1.446   .     S
C12    C136    1.394   .     A
C13    C123    1.395   .     A
C13    C73     1.461   .     S
C13    C116    1.395   .     A
C14    C137    1.394   .     A
C14    C66     1.446   .     S
C14    C25     1.419   .     A
C15    C138    1.394   .     A
C15    C67     1.446   .     S
C15    C21     1.419   .     A
C16    C140    1.394   .     A
C16    C22     1.419   .     A
C16    C69     1.446   .     S
C17    C141    1.419   .     A
C17    C98     1.478   .     S
C18    C97     1.478   .     S
C18    C142    1.419   .     A
C19    C143    1.419   .     A
C19    C104    1.478   .     S
C20    C103    1.478   .     S
C20    C144    1.419   .     A
C21    C102    1.478   .     S
C21    C145    1.419   .     A
C22    C146    1.419   .     A
C22    C101    1.478   .     S
C23    C100    1.478   .     S
C23    C147    1.419   .     A
C24    C124    1.395   .     A
C24    C118    1.395   .     A
C25    C99     1.478   .     S
C25    C148    1.419   .     A
C26    C89     1.479   .     S
C26    C160    1.420   .     A
C26    C149    1.420   .     A
C27    C88     1.479   .     S
C27    C151    1.420   .     A
C28    C96     1.479   .     S
C28    C158    1.420   .     A
C28    C152    1.420   .     A
C29    C159    1.420   .     A
C29    C94     1.479   .     S
C29    C153    1.420   .     A
C30    C93     1.479   .     S
C30    C154    1.420   .     A
C31    C155    1.420   .     A
C31    C92     1.479   .     S
C32    C91     1.479   .     S
C32    C156    1.420   .     A
C33    C157    1.420   .     A
C33    C90     1.479   .     S
C34    C141    1.446   .     S
C34    N1      1.157   .     T
C35    C139    1.461   .     S
C35    C130    1.395   .     A
C35    C119    1.395   .     A
C36    C142    1.446   .     S
C36    N12     1.157   .     T
C37    C143    1.446   .     S
C37    N23     1.158   .     T
C38    N27     1.157   .     T
C38    C144    1.446   .     S
C39    N28     1.157   .     T
C39    C145    1.446   .     S
C40    C146    1.446   .     S
C40    N29     1.157   .     T
C41    N30     1.157   .     T
C41    C147    1.446   .     S
C42    C148    1.446   .     S
C42    N31     1.158   .     T
C43    C149    1.446   .     S
C43    N32     1.157   .     T
C44    C151    1.446   .     S
C44    N2      1.158   .     T
C45    N3      1.157   .     T
C45    C152    1.446   .     S
C46    C120    1.395   .     A
C46    C128    1.461   .     S
C46    C131    1.395   .     A
C47    N4      1.158   .     T
C47    C153    1.446   .     S
C48    C154    1.446   .     S
C48    N5      1.157   .     T
C49    N6      1.158   .     T
C49    C155    1.446   .     S
C50    C156    1.446   .     S
C50    N7      1.158   .     T
C51    C157    1.446   .     S
C51    N8      1.157   .     T
C52    N9      1.158   .     T
C52    C158    1.446   .     S
C53    C159    1.446   .     S
C53    N10     1.158   .     T
C54    C160    1.446   .     S
C54    N11     1.158   .     T
C55    N13     1.157   .     T
C56    N14     1.158   .     T
C57    C117    1.461   .     S
C57    C121    1.395   .     A
C57    C127    1.395   .     A
C58    N15     1.157   .     T
C59    N16     1.158   .     T
C60    N17     1.157   .     T
C61    N18     1.158   .     T
C62    N19     1.157   .     T
C63    N20     1.157   .     T
C64    N21     1.157   .     T
C65    N22     1.157   .     T
C66    N24     1.157   .     T
C67    N25     1.157   .     T
C68    C106    1.461   .     S
C68    C122    1.395   .     A
C68    C129    1.395   .     A
C69    N26     1.157   .     T
C70    C87     1.419   .     S
C70    C71     1.196   .     S
C71    C86     1.419   .     S
C72    C85     1.419   .     S
C72    C74     1.196   .     T
C73    C135    1.395   .     A
C73    C107    1.395   .     A
C74    C83     1.419   .     S
C75    C82     1.419   .     S
C75    C76     1.196   1_556 S
C76    C75     1.196   1_554 S
C76    C81     1.419   .     S
C77    C80     1.419   .     S
C77    C78     1.196   1_556 S
C78    C77     1.196   1_554 S
C78    C79     1.419   .     S
C79    O45     1.278   .     A
C79    O52     1.278   .     S
C80    O2      1.278   .     A
C80    O49     1.278   .     S
C81    O3      1.278   .     S
C81    O50     1.278   .     S
C82    O4      1.278   .     A
C82    O51     1.278   .     A
C83    O9      1.278   .     A
C83    O5      1.278   1_545 S
C84    C108    1.395   .     A
C84    C132    1.395   .     A
C85    O6      1.278   .     A
C85    O10     1.278   1_545 S
C86    O7      1.278   1_455 A
C86    O11     1.278   .     S
C87    O13     1.278   1_455 A
C87    O8      1.278   .     S
C88    O47     1.279   .     A
C88    O14     1.279   .     A
C89    O15     1.279   .     A
C89    O48     1.279   .     A
C90    O44     1.279   .     A
C90    O16     1.279   .     A
C91    O46     1.279   .     A
C91    O17     1.279   .     A
C92    O42     1.279   .     A
C92    O18     1.279   .     A
C93    O19     1.279   .     A
C93    O43     1.279   .     A
C94    O40     1.279   .     A
C94    O20     1.279   .     A
C95    C133    1.395   .     A
C95    C150    1.461   .     S
C95    C109    1.395   .     A
C96    O41     1.279   .     A
C96    O21     1.279   .     A
C97    O22     1.278   .     A
C97    O38     1.278   .     A
C98    O39     1.278   .     A
C98    O24     1.278   .     A
C99    O25     1.278   .     A
C99    O36     1.278   .     A
C100   O26     1.278   .     A
C100   O37     1.278   .     A
C101   O27     1.278   .     A
C101   O33     1.278   .     A
C102   O28     1.278   .     A
C102   O35     1.278   .     A
C103   O31     1.278   .     A
C103   O29     1.278   .     A
C104   O30     1.278   .     A
C104   O32     1.278   .     A
C105   C141    1.394   .     A
C105   H1      1.085   .     S
C106   C138    1.395   .     A
C106   C110    1.395   .     A
C107   H12     1.085   .     S
C107   C142    1.394   .     A
C108   H23     1.085   .     S
C108   C143    1.394   .     A
C109   H27     1.085   .     S
C109   C144    1.394   .     A
C110   C145    1.394   .     A
C110   H28     1.085   .     S
C111   C146    1.394   .     A
C111   H29     1.085   .     S
C111   C117    1.395   .     A
C112   H30     1.085   .     S
C112   C147    1.394   .     A
C112   C128    1.395   .     A
C113   C148    1.394   .     A
C113   C139    1.395   .     A
C113   H31     1.085   .     S
C114   H32     1.085   .     S
C114   C150    1.395   .     A
C114   C149    1.394   .     A
C115   H2      1.085   .     S
C115   C151    1.394   .     A
C116   H3      1.085   .     S
C116   C152    1.394   .     A
C117   C140    1.395   .     A
C118   H4      1.085   .     S
C118   C153    1.394   .     A
C119   H5      1.085   .     S
C119   C154    1.394   .     A
C120   H6      1.085   .     S
C120   C155    1.394   .     A
C121   C156    1.394   .     A
C121   H7      1.085   .     S
C122   H8      1.085   .     S
C122   C157    1.394   .     A
C123   C158    1.394   .     A
C123   H9      1.085   .     S
C124   C159    1.394   .     A
C124   H10     1.085   .     S
C125   C160    1.394   .     A
C125   H11     1.085   .     S
C125   C150    1.395   .     A
C126   H13     1.085   .     S
C127   H14     1.085   .     S
C128   C136    1.395   .     A
C129   H15     1.085   .     S
C130   H16     1.085   .     S
C131   H17     1.085   .     S
C132   H18     1.085   .     S
C133   H19     1.085   .     S
C134   H20     1.085   .     S
C135   H21     1.085   .     S
C136   H22     1.085   .     S
C137   H24     1.085   .     S
C137   C139    1.395   .     A
C138   H25     1.085   .     S
C140   H26     1.085   .     S
O1     Zn8     1.940   .     S
O1     Zn1     1.940   .     S
O1     Zn4     1.940   .     S
O1     Zn12    1.940   1_455 S
O2     Zn3     1.910   .     S
O3     Zn6     1.910   .     S
O4     Zn5     1.910   .     S
O5     Zn15    1.910   .     S
O5     C83     1.278   1_565 S
O6     Zn14    1.910   .     S
O7     C86     1.278   1_655 A
O7     Zn9     1.910   .     S
O8     Zn1     1.910   .     S
O9     Zn11    1.910   .     S
O10    Zn10    1.910   .     S
O10    C85     1.278   1_565 S
O11    Zn13    1.910   .     S
O12    Zn3     1.940   .     S
O12    Zn7     1.940   .     S
O12    Zn13    1.940   .     S
O12    Zn9     1.940   1_455 S
O13    C87     1.278   1_655 A
O13    Zn12    1.910   .     S
O14    Zn4     1.939   .     S
O15    Zn3     1.939   1_655 S
O16    Zn6     1.939   1_565 S
O17    Zn5     1.939   .     S
O18    Zn8     1.939   1_655 S
O19    Zn7     1.939   .     S
O20    Zn2     1.939   .     S
O21    Zn16    1.939   1_565 S
O22    Zn7     1.939   1_655 S
O23    Zn14    1.940   .     S
O23    Zn2     1.940   .     S
O23    Zn6     1.940   .     S
O23    Zn10    1.940   1_545 S
O24    Zn8     1.939   .     S
O25    Zn5     1.939   1_565 S
O26    Zn6     1.939   .     S
O27    Zn3     1.939   .     S
O28    Zn4     1.939   1_655 S
O29    Zn16    1.939   .     S
O30    Zn2     1.939   1_565 S
O31    Zn11    1.939   .     S
O32    Zn10    1.939   .     S
O33    Zn13    1.939   .     S
O34    Zn11    1.940   .     S
O34    Zn16    1.940   .     S
O34    Zn5     1.940   .     S
O34    Zn15    1.940   1_545 S
O35    Zn12    1.939   .     S
O36    Zn15    1.939   .     S
O37    Zn14    1.939   .     S
O38    Zn9     1.939   .     S
O39    Zn1     1.939   .     S
O40    Zn14    1.939   .     S
O41    Zn15    1.939   .     S
O42    Zn12    1.939   .     S
O43    Zn13    1.939   .     S
O44    Zn10    1.939   .     S
O45    Zn8     1.910   .     S
O46    Zn11    1.939   .     S
O47    Zn1     1.939   .     S
O48    Zn9     1.939   .     S
O49    Zn7     1.910   .     S
O50    Zn2     1.910   .     S
O51    Zn16    1.910   .     S
O52    Zn4     1.910   .     S
Zn2    O30     1.939   1_545 S
Zn3    O15     1.939   1_455 S
Zn4    O28     1.939   1_455 S
Zn5    O25     1.939   1_545 S
Zn6    O16     1.939   1_545 S
Zn7    O22     1.939   1_455 S
Zn8    O18     1.939   1_455 S
Zn9    O12     1.940   1_655 S
Zn10   O23     1.940   1_565 S
Zn12   O1      1.940   1_655 S
Zn15   O34     1.940   1_565 S
Zn16   O21     1.939   1_545 S
