data_str_m1_o2_o5_pcu_sym.31
_audit_creation_date              2020-01-03
_audit_creation_method            'Materials Studio'
_symmetry_space_group_name_H-M    'P1'
_symmetry_Int_Tables_number       1
_symmetry_cell_setting            triclinic
loop_
_symmetry_equiv_pos_as_xyz
  x,y,z
_cell_length_a                    24.4491
_cell_length_b                    24.4442
_cell_length_c                    22.4564
_cell_angle_alpha                 89.9756
_cell_angle_beta                  89.9887
_cell_angle_gamma                 89.9983
loop_
_atom_site_label
_atom_site_type_symbol
_atom_site_fract_x
_atom_site_fract_y
_atom_site_fract_z
_atom_site_U_iso_or_equiv
_atom_site_adp_type
_atom_site_occupancy
C1     C     0.22855   0.27145   0.25000   0.00000  Uiso   1.00
C2     C     0.22866   0.72911   0.25244   0.00000  Uiso   1.00
C3     C     0.20410   0.63268   0.24931   0.00000  Uiso   1.00
C4     C     0.32830   0.16435   0.69543   0.00000  Uiso   1.00
C5     C     0.63235   0.79732   0.25045   0.00000  Uiso   1.00
C6     C     0.16599   0.66968   0.69317   0.00000  Uiso   1.00
C7     C     0.79733   0.36767   0.25045   0.00000  Uiso   1.00
C8     C     0.32751   0.83716   0.30535   0.00000  Uiso   1.00
C9     C     0.63245   0.20256   0.75014   0.00000  Uiso   1.00
C10    C     0.16427   0.32823   0.30456   0.00000  Uiso   1.00
C11    C     0.79674   0.63282   0.75693   0.00000  Uiso   1.00
C12    C     0.67262   0.16402   0.30351   0.00000  Uiso   1.00
C13    C     0.72855   0.77145   0.75000   0.00000  Uiso   1.00
C14    C     0.36748   0.79582   0.75131   0.00000  Uiso   1.00
C15    C     0.83587   0.67254   0.30352   0.00000  Uiso   1.00
C16    C     0.20326   0.36718   0.75691   0.00000  Uiso   1.00
C17    C     0.14756   0.35244   0.25000   0.00000  Uiso   1.00
C18    C     0.85246   0.64754   0.75000   0.00000  Uiso   1.00
C19    C     0.35222   0.85269   0.25061   0.00000  Uiso   1.00
C20    C     0.64815   0.14717   0.74893   0.00000  Uiso   1.00
C21    C     0.85221   0.64731   0.24940   0.00000  Uiso   1.00
C22    C     0.14754   0.35245   0.75002   0.00000  Uiso   1.00
C23    C     0.64730   0.14778   0.24940   0.00000  Uiso   1.00
C24    C     0.27115   0.22885   0.25000   0.00000  Uiso   1.00
C25    C     0.35283   0.85185   0.75105   0.00000  Uiso   1.00
C26    C     0.85121   0.35351   0.75177   0.00000  Uiso   1.00
C27    C     0.14808   0.64728   0.24898   0.00000  Uiso   1.00
C28    C     0.64756   0.85244   0.75000   0.00000  Uiso   1.00
C29    C     0.35246   0.14754   0.25000   0.00000  Uiso   1.00
C30    C     0.14647   0.64881   0.74824   0.00000  Uiso   1.00
C31    C     0.85272   0.35191   0.25101   0.00000  Uiso   1.00
C32    C     0.35245   0.14758   0.74999   0.00000  Uiso   1.00
C33    C     0.64809   0.85273   0.25102   0.00000  Uiso   1.00
C34    C     0.22836   0.72877   0.74746   0.00000  Uiso   1.00
C35    C     0.77089   0.27133   0.24758   0.00000  Uiso   1.00
C36    C     0.27146   0.22856   0.75000   0.00000  Uiso   1.00
C37    C     0.72867   0.77090   0.24758   0.00000  Uiso   1.00
C38    C    -0.00000   0.50000   0.47332   0.00000  Uiso   1.00
C39    C     0.00000   0.50001   0.52668   0.00000  Uiso   1.00
C40    C     0.50000  -0.00001   0.47332   0.00000  Uiso   1.00
C41    C     0.77114   0.72885   0.75001   0.00000  Uiso   1.00
C42    C     0.50000   0.00001   0.52668   0.00000  Uiso   1.00
C43    C     0.49999   0.00000   0.97332   0.00000  Uiso   1.00
C44    C     0.50000   0.00000   0.02668   0.00000  Uiso   1.00
C45    C    -0.00001   0.49999   0.97332   0.00000  Uiso   1.00
C46    C    -0.00000   0.50001   0.02668   0.00000  Uiso   1.00
C47    C    -0.00000   0.50001   0.09001   0.00000  Uiso   1.00
C48    C    -0.00001   0.49999   0.91000   0.00000  Uiso   1.00
C49    C     0.50000   0.00000   0.09001   0.00000  Uiso   1.00
C50    C     0.50000  -0.00000   0.90999   0.00000  Uiso   1.00
C51    C     0.50000   0.00001   0.59001   0.00000  Uiso   1.00
C52    C     0.27120   0.77177   0.25188   0.00000  Uiso   1.00
C53    C     0.50000  -0.00001   0.41000   0.00000  Uiso   1.00
C54    C     0.00000   0.50000   0.59001   0.00000  Uiso   1.00
C55    C    -0.00000   0.50000   0.40999   0.00000  Uiso   1.00
C56    C     0.10535   0.60501   0.24968   0.00000  Uiso   1.00
C57    C     0.89460   0.39506   0.75036   0.00000  Uiso   1.00
C58    C     0.60535   0.89499   0.25032   0.00000  Uiso   1.00
C59    C     0.39488   0.10513   0.74999   0.00000  Uiso   1.00
C60    C     0.89499   0.39465   0.25032   0.00000  Uiso   1.00
C61    C     0.10494   0.60540   0.74965   0.00000  Uiso   1.00
C62    C     0.39488   0.10512   0.25000   0.00000  Uiso   1.00
C63    C     0.72881   0.22888   0.75276   0.00000  Uiso   1.00
C64    C     0.60512   0.89488   0.75000   0.00000  Uiso   1.00
C65    C     0.89488   0.60512   0.75000   0.00000  Uiso   1.00
C66    C     0.10512   0.39488   0.25000   0.00000  Uiso   1.00
C67    C     0.39503   0.89463   0.75035   0.00000  Uiso   1.00
C68    C     0.60509   0.10514   0.24993   0.00000  Uiso   1.00
C69    C     0.10512   0.39487   0.75000   0.00000  Uiso   1.00
C70    C     0.89486   0.60510   0.24993   0.00000  Uiso   1.00
C71    C     0.60537   0.10497   0.74965   0.00000  Uiso   1.00
C72    C     0.39486   0.89491   0.25008   0.00000  Uiso   1.00
C73    C     0.21117   0.29371   0.19568   0.00000  Uiso   1.00
C74    C     0.77121   0.72825   0.24814   0.00000  Uiso   1.00
C75    C     0.82698   0.74382   0.74510   0.00000  Uiso   1.00
C76    C     0.29399   0.78792   0.19737   0.00000  Uiso   1.00
C77    C     0.74427   0.17299   0.75209   0.00000  Uiso   1.00
C78    C     0.78807   0.70483   0.19424   0.00000  Uiso   1.00
C79    C     0.17302   0.25618   0.74514   0.00000  Uiso   1.00
C80    C     0.70472   0.21205   0.19425   0.00000  Uiso   1.00
C81    C     0.25615   0.82731   0.74833   0.00000  Uiso   1.00
C82    C     0.79047   0.29235   0.80683   0.00000  Uiso   1.00
C83    C     0.17256   0.74405   0.25057   0.00000  Uiso   1.00
C84    C     0.70628   0.78880   0.80432   0.00000  Uiso   1.00
C85    C     0.22886   0.27115   0.75001   0.00000  Uiso   1.00
C86    C     0.25620   0.17300   0.25496   0.00000  Uiso   1.00
C87    C     0.20947   0.70831   0.80203   0.00000  Uiso   1.00
C88    C     0.82677   0.25584   0.24725   0.00000  Uiso   1.00
C89    C     0.29366   0.21112   0.80432   0.00000  Uiso   1.00
C90    C     0.74414   0.82679   0.24727   0.00000  Uiso   1.00
C91    C     0.71118   0.79373   0.69569   0.00000  Uiso   1.00
C92    C     0.32698   0.24382   0.24505   0.00000  Uiso   1.00
C93    C     0.79169   0.29053   0.69797   0.00000  Uiso   1.00
C94    C     0.24413   0.67322   0.25277   0.00000  Uiso   1.00
C95    C     0.28888   0.20637   0.69568   0.00000  Uiso   1.00
C96    C     0.72824   0.22879   0.24814   0.00000  Uiso   1.00
C97    C     0.67257   0.75596   0.24942   0.00000  Uiso   1.00
C98    C     0.20763   0.70955   0.69317   0.00000  Uiso   1.00
C99    C     0.75597   0.32745   0.24943   0.00000  Uiso   1.00
C100   C     0.28800   0.79523   0.30577   0.00000  Uiso   1.00
C101   C     0.67271   0.24387   0.75163   0.00000  Uiso   1.00
C102   C     0.20630   0.28882   0.30432   0.00000  Uiso   1.00
C103   C     0.75619   0.67300   0.75492   0.00000  Uiso   1.00
C104   C     0.71212   0.20596   0.30265   0.00000  Uiso   1.00
C105   C     0.32699   0.75571   0.74792   0.00000  Uiso   1.00
C106   C     0.79392   0.71204   0.30266   0.00000  Uiso   1.00
C107   C     0.27112   0.77119   0.74724   0.00000  Uiso   1.00
C108   C     0.24381   0.32700   0.75489   0.00000  Uiso   1.00
C109   C     0.17176   0.33574   0.19544   0.00000  Uiso   1.00
C110   C     0.86717   0.70328   0.74308   0.00000  Uiso   1.00
C111   C     0.33593   0.82742   0.19651   0.00000  Uiso   1.00
C112   C     0.70416   0.13250   0.74869   0.00000  Uiso   1.00
C113   C     0.82757   0.66289   0.19466   0.00000  Uiso   1.00
C114   C     0.13284   0.29672   0.74313   0.00000  Uiso   1.00
C115   C     0.66279   0.17254   0.19468   0.00000  Uiso   1.00
C116   C     0.29746   0.86756   0.74982   0.00000  Uiso   1.00
C117   C     0.83033   0.33399   0.80684   0.00000  Uiso   1.00
C118   C     0.77124   0.27163   0.75254   0.00000  Uiso   1.00
C119   C     0.13234   0.70269   0.24953   0.00000  Uiso   1.00
C120   C     0.66426   0.82821   0.80456   0.00000  Uiso   1.00
C121   C     0.29674   0.13282   0.25698   0.00000  Uiso   1.00
C122   C     0.16672   0.66934   0.80256   0.00000  Uiso   1.00
C123   C     0.86732   0.29588   0.25070   0.00000  Uiso   1.00
C124   C     0.33569   0.17171   0.80456   0.00000  Uiso   1.00
C125   C     0.70411   0.86733   0.25071   0.00000  Uiso   1.00
C126   C     0.67177   0.83575   0.69544   0.00000  Uiso   1.00
C127   C     0.36716   0.20327   0.24303   0.00000  Uiso   1.00
C128   C     0.83067   0.33328   0.69744   0.00000  Uiso   1.00
H1     H     0.21790   0.29183   0.10874   0.00000  Uiso   1.00
H2     H     0.18668   0.82348   0.24992   0.00000  Uiso   1.00
H3     H     0.70815   0.78202   0.89126   0.00000  Uiso   1.00
H4     H     0.17692   0.18616   0.25247   0.00000  Uiso   1.00
H5     H     0.23222   0.69735   0.88409   0.00000  Uiso   1.00
H6     H     0.81282   0.17706   0.23831   0.00000  Uiso   1.00
H7     H     0.29169   0.21776   0.89127   0.00000  Uiso   1.00
H8     H     0.82293   0.81285   0.23840   0.00000  Uiso   1.00
H9     H     0.71794   0.79187   0.60874   0.00000  Uiso   1.00
H10    H     0.31381   0.32311   0.24753   0.00000  Uiso   1.00
H11    H     0.80264   0.26778   0.61591   0.00000  Uiso   1.00
H12    H     0.81381   0.82311   0.74762   0.00000  Uiso   1.00
H13    H     0.32291   0.68716   0.26172   0.00000  Uiso   1.00
H14    H     0.28222   0.20837   0.60873   0.00000  Uiso   1.00
H15    H     0.68670   0.67653   0.25003   0.00000  Uiso   1.00
H16    H     0.21150   0.71377   0.60612   0.00000  Uiso   1.00
H17    H     0.67656   0.31334   0.25016   0.00000  Uiso   1.00
H18    H     0.28019   0.79542   0.39263   0.00000  Uiso   1.00
H19    H     0.68680   0.32328   0.75440   0.00000  Uiso   1.00
H20    H     0.20819   0.28206   0.39126   0.00000  Uiso   1.00
H21    H     0.67692   0.68616   0.75240   0.00000  Uiso   1.00
H22    H     0.72101   0.20684   0.38938   0.00000  Uiso   1.00
H23    H     0.29303   0.77910   0.11062   0.00000  Uiso   1.00
H24    H     0.31301   0.67669   0.74162   0.00000  Uiso   1.00
H25    H     0.79286   0.72077   0.38941   0.00000  Uiso   1.00
H26    H     0.32309   0.31384   0.75238   0.00000  Uiso   1.00
H27    H     0.14504   0.39747   0.14836   0.00000  Uiso   1.00
H28    H     0.94227   0.68990   0.71706   0.00000  Uiso   1.00
H29    H     0.39761   0.85407   0.14919   0.00000  Uiso   1.00
H30    H     0.69330   0.05668   0.72446   0.00000  Uiso   1.00
H31    H     0.85453   0.60050   0.14877   0.00000  Uiso   1.00
H32    H     0.05773   0.31009   0.71716   0.00000  Uiso   1.00
H33    H     0.60034   0.14563   0.14885   0.00000  Uiso   1.00
H34    H     0.82329   0.18695   0.75842   0.00000  Uiso   1.00
H35    H     0.24524   0.92864   0.74734   0.00000  Uiso   1.00
H36    H     0.85905   0.39366   0.85527   0.00000  Uiso   1.00
H37    H     0.07126   0.75490   0.25143   0.00000  Uiso   1.00
H38    H     0.60253   0.85492   0.85163   0.00000  Uiso   1.00
H39    H     0.31016   0.05770   0.28301   0.00000  Uiso   1.00
H40    H     0.14662   0.67946   0.88552   0.00000  Uiso   1.00
H41    H     0.94321   0.30633   0.27471   0.00000  Uiso   1.00
H42    H     0.39737   0.14498   0.85166   0.00000  Uiso   1.00
H43    H     0.69361   0.94324   0.27472   0.00000  Uiso   1.00
H44    H     0.64505   0.89749   0.64837   0.00000  Uiso   1.00
H45    H     0.78037   0.70473   0.10737   0.00000  Uiso   1.00
H46    H     0.44226   0.18988   0.21700   0.00000  Uiso   1.00
H47    H     0.82055   0.35339   0.61448   0.00000  Uiso   1.00
H48    H     0.19364   0.55677   0.22529   0.00000  Uiso   1.00
H49    H     0.35504   0.10269   0.64832   0.00000  Uiso   1.00
H50    H     0.57127   0.74511   0.24851   0.00000  Uiso   1.00
H51    H     0.10631   0.64099   0.64474   0.00000  Uiso   1.00
H52    H     0.74514   0.42877   0.24850   0.00000  Uiso   1.00
H53    H     0.35445   0.89959   0.35120   0.00000  Uiso   1.00
H54    H     0.57140   0.25480   0.75257   0.00000  Uiso   1.00
H55    H     0.10256   0.35493   0.35164   0.00000  Uiso   1.00
H56    H     0.18621   0.17689   0.74763   0.00000  Uiso   1.00
H57    H     0.81013   0.55769   0.78295   0.00000  Uiso   1.00
H58    H     0.64596   0.10230   0.35079   0.00000  Uiso   1.00
H59    H     0.44329   0.80667   0.77555   0.00000  Uiso   1.00
H60    H     0.89751   0.64587   0.35086   0.00000  Uiso   1.00
H61    H     0.18987   0.44228   0.78290   0.00000  Uiso   1.00
H62    H     0.70447   0.21993   0.10740   0.00000  Uiso   1.00
H63    H     0.17675   0.81324   0.74557   0.00000  Uiso   1.00
H64    H     0.78625   0.28847   0.89388   0.00000  Uiso   1.00
O1     O     0.00000   0.50000   0.25000   0.00000  Uiso   1.00
O2     O    -0.00000   0.45454   0.88202   0.00000  Uiso   1.00
O3     O     0.72178   0.92096   0.25442   0.00000  Uiso   1.00
O4     O     0.65868   0.85991   0.64156   0.00000  Uiso   1.00
O5     O     0.42048   0.22025   0.23383   0.00000  Uiso   1.00
O6     O     0.84980   0.35565   0.64488   0.00000  Uiso   1.00
O7     O     0.22178   0.57905   0.24562   0.00000  Uiso   1.00
O8     O     0.34145   0.14028   0.64153   0.00000  Uiso   1.00
O9     O     0.57699   0.78514   0.24988   0.00000  Uiso   1.00
O10    O     0.14449   0.65333   0.63906   0.00000  Uiso   1.00
O11    O     0.78517   0.42303   0.24987   0.00000  Uiso   1.00
O12    O     0.34024   0.86235   0.35876   0.00000  Uiso   1.00
O13    O     0.54546  -0.00000   0.11798   0.00000  Uiso   1.00
O14    O     0.57711   0.21477   0.75110   0.00000  Uiso   1.00
O15    O     0.14013   0.34131   0.35845   0.00000  Uiso   1.00
O16    O     0.77977   0.57948   0.76609   0.00000  Uiso   1.00
O17    O     0.66059   0.13950   0.35751   0.00000  Uiso   1.00
O18    O     0.42108   0.77820   0.75566   0.00000  Uiso   1.00
O19    O     0.86027   0.66042   0.35754   0.00000  Uiso   1.00
O20    O     0.22023   0.42052   0.76602   0.00000  Uiso   1.00
O21    O     0.45454  -0.00000   0.88202   0.00000  Uiso   1.00
O22    O     0.50000   0.95454   0.61798   0.00000  Uiso   1.00
O23    O     0.50000   0.04546   0.38202   0.00000  Uiso   1.00
O24    O     0.95454   0.50000   0.61798   0.00000  Uiso   1.00
O25    O     0.04546   0.50000   0.38202   0.00000  Uiso   1.00
O26    O     0.50000   0.04546   0.61798   0.00000  Uiso   1.00
O27    O     0.50000   0.95454   0.38202   0.00000  Uiso   1.00
O28    O     0.04546   0.50000   0.61798   0.00000  Uiso   1.00
O29    O    -0.00000   0.50000   0.75000   0.00000  Uiso   1.00
O30    O     0.95454   0.50000   0.38202   0.00000  Uiso   1.00
O31    O     0.06399   0.60947   0.21539   0.00000  Uiso   1.00
O32    O     0.93601   0.39053   0.78461   0.00000  Uiso   1.00
O33    O     0.60947   0.93601   0.21539   0.00000  Uiso   1.00
O34    O     0.39053   0.06399   0.78461   0.00000  Uiso   1.00
O35    O     0.93601   0.39053   0.21539   0.00000  Uiso   1.00
O36    O     0.06399   0.60947   0.78461   0.00000  Uiso   1.00
O37    O     0.39053   0.06399   0.21539   0.00000  Uiso   1.00
O38    O     0.60947   0.93601   0.78461   0.00000  Uiso   1.00
O39    O     0.93601   0.60947   0.78461   0.00000  Uiso   1.00
O40    O     0.50000  -0.00000   0.25000   0.00000  Uiso   1.00
O41    O     0.06399   0.39053   0.21539   0.00000  Uiso   1.00
O42    O     0.39053   0.93601   0.78461   0.00000  Uiso   1.00
O43    O     0.60947   0.06399   0.21539   0.00000  Uiso   1.00
O44    O     0.06399   0.39053   0.78461   0.00000  Uiso   1.00
O45    O     0.93601   0.60947   0.21539   0.00000  Uiso   1.00
O46    O     0.60947   0.06399   0.78461   0.00000  Uiso   1.00
O47    O     0.39053   0.93601   0.21539   0.00000  Uiso   1.00
O48    O     0.56399   0.10947   0.71539   0.00000  Uiso   1.00
O49    O     0.43601   0.89053   0.28461   0.00000  Uiso   1.00
O50    O     0.10947   0.43601   0.71539   0.00000  Uiso   1.00
O51    O     0.50000  -0.00000   0.75000   0.00000  Uiso   1.00
O52    O     0.89053   0.56399   0.28461   0.00000  Uiso   1.00
O53    O     0.43601   0.89053   0.71539   0.00000  Uiso   1.00
O54    O     0.56399   0.10947   0.28461   0.00000  Uiso   1.00
O55    O     0.89053   0.56399   0.71539   0.00000  Uiso   1.00
O56    O     0.10947   0.43601   0.28461   0.00000  Uiso   1.00
O57    O     0.43601   0.10947   0.28461   0.00000  Uiso   1.00
O58    O     0.56399   0.89053   0.71539   0.00000  Uiso   1.00
O59    O     0.89053   0.43601   0.28461   0.00000  Uiso   1.00
O60    O     0.10947   0.56399   0.71539   0.00000  Uiso   1.00
O61    O     0.56399   0.89053   0.28461   0.00000  Uiso   1.00
O62    O    -0.00000   0.45454   0.11798   0.00000  Uiso   1.00
O63    O     0.43601   0.10947   0.71539   0.00000  Uiso   1.00
O64    O     0.10947   0.56399   0.28461   0.00000  Uiso   1.00
O65    O     0.89053   0.43601   0.71539   0.00000  Uiso   1.00
O66    O     0.23490   0.27428   0.14386   0.00000  Uiso   1.00
O67    O     0.84445   0.79757   0.74059   0.00000  Uiso   1.00
O68    O     0.27510   0.76295   0.14600   0.00000  Uiso   1.00
O69    O     0.79822   0.15567   0.75291   0.00000  Uiso   1.00
O70    O     0.76376   0.72309   0.14222   0.00000  Uiso   1.00
O71    O     0.15556   0.20243   0.74067   0.00000  Uiso   1.00
O72    O     0.72289   0.23646   0.14224   0.00000  Uiso   1.00
O73    O    -0.00000   0.54546   0.88202   0.00000  Uiso   1.00
O74    O     0.20213   0.84458   0.74792   0.00000  Uiso   1.00
O75    O     0.76859   0.27135   0.85891   0.00000  Uiso   1.00
O76    O     0.15529   0.79806   0.24974   0.00000  Uiso   1.00
O77    O     0.72571   0.76504   0.85614   0.00000  Uiso   1.00
O78    O     0.20247   0.15552   0.25950   0.00000  Uiso   1.00
O79    O     0.23440   0.72651   0.85358   0.00000  Uiso   1.00
O80    O     0.84401   0.20189   0.24544   0.00000  Uiso   1.00
O81    O     0.27417   0.23480   0.85615   0.00000  Uiso   1.00
O82    O     0.79808   0.84405   0.24548   0.00000  Uiso   1.00
O83    O     0.73493   0.77430   0.64386   0.00000  Uiso   1.00
O84    O     0.45454  -0.00000   0.11798   0.00000  Uiso   1.00
O85    O     0.34445   0.29756   0.24050   0.00000  Uiso   1.00
O86    O     0.77349   0.26560   0.64642   0.00000  Uiso   1.00
O87    O     0.29807   0.65596   0.25460   0.00000  Uiso   1.00
O88    O     0.26519   0.22588   0.64386   0.00000  Uiso   1.00
O89    O     0.65530   0.70194   0.25022   0.00000  Uiso   1.00
O90    O     0.22863   0.73143   0.64109   0.00000  Uiso   1.00
O91    O     0.70197   0.34473   0.25026   0.00000  Uiso   1.00
O92    O     0.26362   0.77703   0.35779   0.00000  Uiso   1.00
O93    O     0.65546   0.29790   0.75202   0.00000  Uiso   1.00
O94    O     0.22574   0.26507   0.35614   0.00000  Uiso   1.00
O95    O     0.54546  -0.00000   0.88202   0.00000  Uiso   1.00
O96    O     0.70246   0.65552   0.75942   0.00000  Uiso   1.00
O97    O     0.73714   0.22479   0.35401   0.00000  Uiso   1.00
O98    O     0.34429   0.70175   0.74713   0.00000  Uiso   1.00
O99    O     0.77498   0.73697   0.35403   0.00000  Uiso   1.00
O100   O     0.29754   0.34448   0.75936   0.00000  Uiso   1.00
O101   O     0.15866   0.35989   0.14155   0.00000  Uiso   1.00
O102   O     0.92049   0.72026   0.73392   0.00000  Uiso   1.00
O103   O     0.36040   0.83948   0.14249   0.00000  Uiso   1.00
O104   O     0.72176   0.07889   0.74436   0.00000  Uiso   1.00
O105   O     0.84037   0.63776   0.14123   0.00000  Uiso   1.00
O106   O    -0.00000   0.54546   0.11798   0.00000  Uiso   1.00
O107   O     0.07951   0.27973   0.73403   0.00000  Uiso   1.00
O108   O     0.63757   0.15986   0.14127   0.00000  Uiso   1.00
O109   O     0.28527   0.92292   0.74882   0.00000  Uiso   1.00
O110   O     0.84670   0.35548   0.86094   0.00000  Uiso   1.00
O111   O     0.07699   0.71487   0.25007   0.00000  Uiso   1.00
O112   O     0.64011   0.84129   0.85844   0.00000  Uiso   1.00
O113   O     0.27978   0.07948   0.26617   0.00000  Uiso   1.00
O114   O     0.14434   0.65021   0.85512   0.00000  Uiso   1.00
O115   O     0.92092   0.27818   0.25440   0.00000  Uiso   1.00
O116   O     0.35978   0.15855   0.85845   0.00000  Uiso   1.00
Zn1    Zn    0.06497   0.50000   0.29947   0.00000  Uiso   1.00
Zn2    Zn    0.43503  -0.00000   0.20053   0.00000  Uiso   1.00
Zn3    Zn    0.00000   0.43503   0.79947   0.00000  Uiso   1.00
Zn4    Zn   -0.00000   0.56497   0.20053   0.00000  Uiso   1.00
Zn5    Zn    0.43503  -0.00000   0.79947   0.00000  Uiso   1.00
Zn6    Zn    0.56497  -0.00000   0.20053   0.00000  Uiso   1.00
Zn7    Zn    0.00000   0.56497   0.79947   0.00000  Uiso   1.00
Zn8    Zn   -0.00000   0.43503   0.20053   0.00000  Uiso   1.00
Zn9    Zn    0.93503   0.50000   0.70053   0.00000  Uiso   1.00
Zn10   Zn    0.50000   0.93503   0.29947   0.00000  Uiso   1.00
Zn11   Zn    0.50000   0.06497   0.70053   0.00000  Uiso   1.00
Zn12   Zn    0.93503   0.50000   0.29947   0.00000  Uiso   1.00
Zn13   Zn    0.06497   0.50000   0.70053   0.00000  Uiso   1.00
Zn14   Zn    0.50000   0.06497   0.29947   0.00000  Uiso   1.00
Zn15   Zn    0.50000   0.93503   0.70053   0.00000  Uiso   1.00
Zn16   Zn    0.56497  -0.00000   0.79947   0.00000  Uiso   1.00
loop_
_geom_bond_atom_site_label_1
_geom_bond_atom_site_label_2
_geom_bond_distance
_geom_bond_site_symmetry_2
_ccdc_geom_bond_type
C1     C24     1.473   .     S
C1     C73     1.402   .     A
C1     C102    1.402   .     A
C2     C83     1.420   .     A
C2     C94     1.418   .     A
C2     C52     1.473   .     S
C3     C27     1.415   .     A
C3     O7      1.383   .     S
C3     C94     1.395   .     A
C4     C32     1.421   .     A
C4     C95     1.408   .     A
C4     O8      1.384   .     S
C5     O9      1.386   .     S
C5     C33     1.408   .     A
C5     C97     1.411   .     A
C6     C30     1.420   .     A
C6     C98     1.409   .     A
C6     O10     1.383   .     S
C7     C99     1.411   .     A
C7     O11     1.386   .     S
C7     C31     1.408   .     A
C8     C19     1.421   .     A
C8     C100    1.409   .     A
C8     O12     1.384   .     S
C9     O14     1.386   .     S
C9     C20     1.408   .     A
C9     C101    1.410   .     A
C10    C102    1.408   .     A
C10    C17     1.421   .     A
C10    O15     1.384   .     S
C11    C18     1.418   .     A
C11    O16     1.384   .     S
C11    C103    1.396   .     A
C12    C23     1.420   .     A
C12    C104    1.409   .     A
C12    O17     1.384   .     S
C13    C91     1.402   .     A
C13    C84     1.402   .     A
C13    C41     1.473   .     S
C14    C105    1.395   .     A
C14    C25     1.416   .     A
C14    O18     1.383   .     S
C15    C106    1.409   .     A
C15    O19     1.384   .     S
C15    C21     1.420   .     A
C16    C22     1.418   .     A
C16    O20     1.384   .     S
C16    C108    1.396   .     A
C17    C109    1.421   .     A
C17    C66     1.467   .     S
C18    C65     1.467   .     S
C18    C110    1.418   .     A
C19    C111    1.420   .     A
C19    C72     1.467   .     S
C20    C71     1.469   .     S
C20    C112    1.416   .     A
C21    C113    1.421   .     A
C21    C70     1.467   .     S
C22    C69     1.467   .     S
C22    C114    1.418   .     A
C23    C68     1.467   .     S
C23    C115    1.421   .     A
C24    C92     1.418   .     A
C24    C86     1.418   .     A
C25    C67     1.469   .     S
C25    C116    1.408   .     A
C26    C117    1.420   .     A
C26    C57     1.469   .     S
C26    C128    1.409   .     A
C27    C56     1.470   .     S
C27    C119    1.408   .     A
C28    C120    1.421   .     A
C28    C126    1.421   .     A
C28    C64     1.467   .     S
C29    C127    1.418   .     A
C29    C121    1.418   .     A
C29    C62     1.467   .     S
C30    C122    1.409   .     A
C30    C61     1.469   .     S
C31    C60     1.470   .     S
C31    C123    1.415   .     A
C32    C59     1.467   .     S
C32    C124    1.421   .     A
C33    C125    1.415   .     A
C33    C58     1.469   .     S
C34    C87     1.402   .     A
C34    C107    1.472   .     S
C34    C98     1.402   .     A
C35    C96     1.473   .     S
C35    C99     1.420   .     A
C35    C88     1.418   .     A
C36    C89     1.401   .     A
C36    C95     1.402   .     A
C36    C85     1.473   .     S
C37    C90     1.418   .     A
C37    C74     1.473   .     S
C37    C97     1.420   .     A
C38    C55     1.422   .     S
C38    C39     1.198   .     S
C39    C54     1.422   .     S
C40    C53     1.422   .     S
C40    C42     1.198   .     S
C41    C75     1.418   .     A
C41    C103    1.418   .     A
C42    C51     1.422   .     S
C43    C50     1.422   .     S
C43    C44     1.198   1_556 S
C44    C49     1.422   .     S
C44    C43     1.198   1_554 S
C45    C48     1.422   .     S
C45    C46     1.198   1_556 S
C46    C47     1.422   .     S
C46    C45     1.198   1_554 S
C47    O106    1.277   .     A
C47    O62     1.276   .     A
C48    O73     1.276   .     A
C48    O2      1.277   .     A
C49    O13     1.277   .     A
C49    O84     1.277   .     A
C50    O95     1.277   .     A
C50    O21     1.277   .     A
C51    O26     1.277   .     A
C51    O22     1.276   1_545 S
C52    C100    1.401   .     A
C52    C76     1.402   .     A
C53    O27     1.277   1_545 A
C53    O23     1.276   .     S
C54    O28     1.277   .     A
C54    O24     1.277   1_455 S
C55    O30     1.277   1_455 A
C55    O25     1.277   .     S
C56    O64     1.277   .     A
C56    O31     1.276   .     A
C57    O65     1.276   .     A
C57    O32     1.276   .     A
C58    O33     1.277   .     A
C58    O61     1.276   .     A
C59    O63     1.275   .     A
C59    O34     1.275   .     A
C60    O59     1.276   .     A
C60    O35     1.277   .     A
C61    O60     1.276   .     A
C61    O36     1.276   .     A
C62    O57     1.275   .     A
C62    O37     1.275   .     A
C63    C118    1.472   .     S
C63    C101    1.420   .     A
C63    C77     1.418   .     A
C64    O58     1.276   .     A
C64    O38     1.276   .     A
C65    O39     1.275   .     A
C65    O55     1.275   .     A
C66    O56     1.276   .     A
C66    O41     1.276   .     A
C67    O53     1.277   .     A
C67    O42     1.276   .     A
C68    O54     1.276   .     A
C68    O43     1.275   .     A
C69    O44     1.275   .     A
C69    O50     1.275   .     A
C70    O45     1.275   .     A
C70    O52     1.275   .     A
C71    O48     1.276   .     A
C71    O46     1.277   .     A
C72    O47     1.275   .     A
C72    O49     1.275   .     A
C73    O66     1.385   .     S
C73    C109    1.408   .     A
C74    C78     1.401   .     A
C74    C106    1.402   .     A
C75    O67     1.385   .     S
C75    C110    1.396   .     A
C76    O68     1.385   .     S
C76    C111    1.409   .     A
C77    C112    1.395   .     A
C77    O69     1.385   .     S
C78    C113    1.408   .     A
C78    O70     1.385   .     S
C79    C85     1.418   .     A
C79    O71     1.385   .     S
C79    C114    1.396   .     A
C80    O72     1.385   .     S
C80    C115    1.409   .     A
C80    C96     1.401   .     A
C81    C116    1.410   .     A
C81    C107    1.420   .     A
C81    O74     1.386   .     S
C82    O75     1.384   .     S
C82    C118    1.402   .     A
C82    C117    1.409   .     A
C83    C119    1.411   .     A
C83    O76     1.386   .     S
C84    C120    1.408   .     A
C84    O77     1.385   .     S
C85    C108    1.418   .     A
C86    C121    1.396   .     A
C86    O78     1.385   .     S
C87    C122    1.414   .     A
C87    O79     1.382   .     S
C88    O80     1.385   .     S
C88    C123    1.395   .     A
C89    O81     1.385   .     S
C89    C124    1.408   .     A
C90    O82     1.385   .     S
C90    C125    1.395   .     A
C91    O83     1.385   .     S
C91    C126    1.408   .     A
C92    C127    1.396   .     A
C92    O85     1.385   .     S
C93    O86     1.382   .     S
C93    C128    1.414   .     A
C93    C118    1.402   .     A
C94    O87     1.385   .     S
C95    O88     1.385   .     S
C96    C104    1.402   .     A
C97    O89     1.386   .     S
C98    O90     1.384   .     S
C99    O91     1.386   .     S
C100   O92     1.385   .     S
C101   O93     1.386   .     S
C102   O94     1.385   .     S
C103   O96     1.385   .     S
C104   O97     1.385   .     S
C105   C107    1.418   .     A
C105   O98     1.385   .     S
C106   O99     1.385   .     S
C108   O100    1.385   .     S
C109   O101    1.384   .     S
C110   O102    1.384   .     S
C111   O103    1.384   .     S
C112   O104    1.383   .     S
C113   O105    1.384   .     S
C114   O107    1.384   .     S
C115   O108    1.384   .     S
C116   O109    1.386   .     S
C117   O110    1.383   .     S
C119   O111    1.386   .     S
C120   O112    1.384   .     S
C121   O113    1.384   .     S
C122   O114    1.382   .     S
C123   O115    1.383   .     S
C124   O116    1.384   .     S
C125   O3      1.383   .     S
C126   O4      1.384   .     S
C127   O5      1.384   .     S
C128   O6      1.382   .     S
H1     O66     0.989   .     S
H2     O76     0.987   .     S
H3     O77     0.989   .     S
H4     O78     0.988   .     S
H5     O79     0.990   .     S
H6     O80     0.988   .     S
H7     O81     0.989   .     S
H8     O82     0.988   .     S
H9     O83     0.989   .     S
H10    O85     0.988   .     S
H11    O86     0.990   .     S
H12    O67     0.988   .     S
H13    O87     0.988   .     S
H14    O88     0.989   .     S
H15    O89     0.987   .     S
H16    O90     0.989   .     S
H17    O91     0.987   .     S
H18    O92     0.989   .     S
H19    O93     0.987   .     S
H20    O94     0.989   .     S
H21    O96     0.988   .     S
H22    O97     0.989   .     S
H23    O68     0.989   .     S
H24    O98     0.988   .     S
H25    O99     0.989   .     S
H26    O100    0.988   .     S
H27    O101    0.989   .     S
H28    O102    0.989   .     S
H29    O103    0.989   .     S
H30    O104    0.989   .     S
H31    O105    0.989   .     S
H32    O107    0.989   .     S
H33    O108    0.989   .     S
H34    O69     0.988   .     S
H35    O109    0.989   .     S
H36    O110    0.989   .     S
H37    O111    0.989   .     S
H38    O112    0.989   .     S
H39    O113    0.989   .     S
H40    O114    0.990   .     S
H41    O115    0.989   .     S
H42    O116    0.989   .     S
H43    O3      0.989   .     S
H44    O4      0.989   .     S
H45    O70     0.989   .     S
H46    O5      0.989   .     S
H47    O6      0.990   .     S
H48    O7      0.989   .     S
H49    O8      0.989   .     S
H50    O9      0.989   .     S
H51    O10     0.989   .     S
H52    O11     0.989   .     S
H53    O12     0.989   .     S
H54    O14     0.989   .     S
H55    O15     0.989   .     S
H56    O71     0.988   .     S
H57    O16     0.989   .     S
H58    O17     0.989   .     S
H59    O18     0.989   .     S
H60    O19     0.989   .     S
H61    O20     0.989   .     S
H62    O72     0.989   .     S
H63    O74     0.987   .     S
H64    O75     0.989   .     S
O1     Zn1     1.939   .     S
O1     Zn4     1.938   .     S
O1     Zn8     1.939   .     S
O1     Zn12    1.938   1_455 S
O2     Zn3     1.914   .     S
O13    Zn6     1.914   .     S
O21    Zn5     1.914   .     S
O22    Zn15    1.914   .     S
O22    C51     1.276   1_565 S
O23    Zn14    1.914   .     S
O24    Zn9     1.914   .     S
O24    C54     1.277   1_655 S
O25    Zn1     1.914   .     S
O26    Zn11    1.914   .     S
O27    C53     1.277   1_565 A
O27    Zn10    1.914   .     S
O28    Zn13    1.914   .     S
O29    Zn9     1.939   1_455 S
O29    Zn3     1.938   .     S
O29    Zn7     1.939   .     S
O29    Zn13    1.938   .     S
O30    C55     1.277   1_655 A
O30    Zn12    1.914   .     S
O31    Zn4     1.935   .     S
O32    Zn3     1.935   1_655 S
O33    Zn6     1.934   1_565 S
O34    Zn5     1.934   .     S
O35    Zn8     1.934   1_655 S
O36    Zn7     1.934   .     S
O37    Zn2     1.934   .     S
O38    Zn16    1.934   1_565 S
O39    Zn7     1.934   1_655 S
O40    Zn6     1.938   .     S
O40    Zn14    1.939   .     S
O40    Zn2     1.939   .     S
O40    Zn10    1.938   1_545 S
O41    Zn8     1.934   .     S
O42    Zn5     1.935   1_565 S
O43    Zn6     1.935   .     S
O44    Zn3     1.934   .     S
O45    Zn4     1.934   1_655 S
O46    Zn16    1.934   .     S
O47    Zn2     1.934   1_565 S
O48    Zn11    1.935   .     S
O49    Zn10    1.935   .     S
O50    Zn13    1.934   .     S
O51    Zn5     1.938   .     S
O51    Zn16    1.939   .     S
O51    Zn11    1.938   .     S
O51    Zn15    1.939   1_545 S
O52    Zn12    1.934   .     S
O53    Zn15    1.934   .     S
O54    Zn14    1.934   .     S
O55    Zn9     1.934   .     S
O56    Zn1     1.934   .     S
O57    Zn14    1.934   .     S
O58    Zn15    1.934   .     S
O59    Zn12    1.935   .     S
O60    Zn13    1.935   .     S
O61    Zn10    1.934   .     S
O62    Zn8     1.914   .     S
O63    Zn11    1.934   .     S
O64    Zn1     1.934   .     S
O65    Zn9     1.934   .     S
O73    Zn7     1.914   .     S
O84    Zn2     1.914   .     S
O95    Zn16    1.914   .     S
O106   Zn4     1.914   .     S
Zn2    O47     1.934   1_545 S
Zn3    O32     1.935   1_455 S
Zn4    O45     1.934   1_455 S
Zn5    O42     1.935   1_545 S
Zn6    O33     1.934   1_545 S
Zn7    O39     1.934   1_455 S
Zn8    O35     1.934   1_455 S
Zn9    O29     1.939   1_655 S
Zn10   O40     1.938   1_565 S
Zn12   O1      1.938   1_655 S
Zn15   O51     1.939   1_565 S
Zn16   O38     1.934   1_545 S
