data_str_m1_o2_o5_pcu_sym.51
_audit_creation_date              2020-01-03
_audit_creation_method            'Materials Studio'
_symmetry_space_group_name_H-M    'P1'
_symmetry_Int_Tables_number       1
_symmetry_cell_setting            triclinic
loop_
_symmetry_equiv_pos_as_xyz
  x,y,z
_cell_length_a                    24.4566
_cell_length_b                    24.4566
_cell_length_c                    22.4485
_cell_angle_alpha                 90.0000
_cell_angle_beta                  90.0000
_cell_angle_gamma                 90.0000
loop_
_atom_site_label
_atom_site_type_symbol
_atom_site_fract_x
_atom_site_fract_y
_atom_site_fract_z
_atom_site_U_iso_or_equiv
_atom_site_adp_type
_atom_site_occupancy
Zn1    Zn    0.06497   0.50000   0.29947   0.00000  Uiso   1.00
Zn2    Zn    0.93503   0.50000   0.70053   0.00000  Uiso   1.00
Zn3    Zn    0.50000   0.93503   0.29947   0.00000  Uiso   1.00
Zn4    Zn    0.50000   0.06497   0.70053   0.00000  Uiso   1.00
Zn5    Zn    0.93503   0.50000   0.29947   0.00000  Uiso   1.00
Zn6    Zn    0.06497   0.50000   0.70053   0.00000  Uiso   1.00
Zn7    Zn    0.50000   0.06497   0.29947   0.00000  Uiso   1.00
Zn8    Zn    0.50000   0.93503   0.70053   0.00000  Uiso   1.00
Zn9    Zn    0.56497   0.00000   0.79947   0.00000  Uiso   1.00
Zn10   Zn    0.43503   0.00000   0.20053   0.00000  Uiso   1.00
Zn11   Zn    0.00000   0.43503   0.79947   0.00000  Uiso   1.00
Zn12   Zn    0.00000   0.56497   0.20053   0.00000  Uiso   1.00
Zn13   Zn    0.43503   0.00000   0.79947   0.00000  Uiso   1.00
Zn14   Zn    0.56497   0.00000   0.20053   0.00000  Uiso   1.00
Zn15   Zn    0.00000   0.56497   0.79947   0.00000  Uiso   1.00
Zn16   Zn    0.00000   0.43503   0.20053   0.00000  Uiso   1.00
C1     C     0.22868   0.27132   0.25000   0.00000  Uiso   1.00
C2     C     0.77130   0.72870   0.75000   0.00000  Uiso   1.00
C3     C     0.27132   0.77132   0.25000   0.00000  Uiso   1.00
C4     C     0.72871   0.22871   0.75000   0.00000  Uiso   1.00
C5     C     0.77132   0.72868   0.25000   0.00000  Uiso   1.00
C6     C     0.22870   0.27130   0.75000   0.00000  Uiso   1.00
C7     C     0.72868   0.22868   0.25000   0.00000  Uiso   1.00
C8     C     0.27130   0.77129   0.75000   0.00000  Uiso   1.00
C9     C     0.77132   0.27132   0.75000   0.00000  Uiso   1.00
C10    C     0.22870   0.72870   0.25000   0.00000  Uiso   1.00
C11    C     0.72868   0.77132   0.75000   0.00000  Uiso   1.00
C12    C     0.27130   0.22870   0.25000   0.00000  Uiso   1.00
C13    C     0.22868   0.72868   0.75000   0.00000  Uiso   1.00
C14    C     0.77130   0.27130   0.25000   0.00000  Uiso   1.00
C15    C     0.27132   0.22868   0.75000   0.00000  Uiso   1.00
C16    C     0.72870   0.77130   0.25000   0.00000  Uiso   1.00
O1     O     0.00000   0.50000   0.25000   0.00000  Uiso   1.00
O2     O     0.00000   0.50000   0.75000   0.00000  Uiso   1.00
O3     O     0.50000   0.00000   0.25000   0.00000  Uiso   1.00
O4     O     0.50000  -0.00000   0.75000   0.00000  Uiso   1.00
O5     O     0.00000   0.45454   0.11798   0.00000  Uiso   1.00
O6     O     0.00000   0.54546   0.88202   0.00000  Uiso   1.00
O7     O     0.45454   0.00000   0.11798   0.00000  Uiso   1.00
O8     O     0.54546   0.00000   0.88202   0.00000  Uiso   1.00
O9     O     0.00000   0.54546   0.11798   0.00000  Uiso   1.00
O10    O     0.00000   0.45454   0.88202   0.00000  Uiso   1.00
O11    O     0.54546   0.00000   0.11798   0.00000  Uiso   1.00
O12    O     0.45454   0.00000   0.88202   0.00000  Uiso   1.00
O13    O     0.50000   0.95454   0.61798   0.00000  Uiso   1.00
O14    O     0.50000   0.04546   0.38202   0.00000  Uiso   1.00
O15    O     0.95454   0.50000   0.61798   0.00000  Uiso   1.00
O16    O     0.04546   0.50000   0.38202   0.00000  Uiso   1.00
O17    O     0.50000   0.04546   0.61798   0.00000  Uiso   1.00
O18    O     0.50000   0.95454   0.38202   0.00000  Uiso   1.00
O19    O     0.04546   0.50000   0.61798   0.00000  Uiso   1.00
O20    O     0.95454   0.50000   0.38202   0.00000  Uiso   1.00
O21    O     0.06399   0.60947   0.21539   0.00000  Uiso   1.00
O22    O     0.93601   0.39053   0.78461   0.00000  Uiso   1.00
O23    O     0.60947   0.93601   0.21539   0.00000  Uiso   1.00
O24    O     0.39053   0.06399   0.78461   0.00000  Uiso   1.00
O25    O     0.93601   0.39053   0.21539   0.00000  Uiso   1.00
O26    O     0.06399   0.60947   0.78461   0.00000  Uiso   1.00
O27    O     0.39053   0.06399   0.21539   0.00000  Uiso   1.00
O28    O     0.60947   0.93601   0.78461   0.00000  Uiso   1.00
O29    O     0.93601   0.60947   0.78461   0.00000  Uiso   1.00
O30    O     0.06399   0.39053   0.21539   0.00000  Uiso   1.00
O31    O     0.39053   0.93601   0.78461   0.00000  Uiso   1.00
O32    O     0.60947   0.06399   0.21539   0.00000  Uiso   1.00
O33    O     0.06399   0.39053   0.78461   0.00000  Uiso   1.00
O34    O     0.93601   0.60947   0.21539   0.00000  Uiso   1.00
O35    O     0.60947   0.06399   0.78461   0.00000  Uiso   1.00
O36    O     0.39053   0.93601   0.21539   0.00000  Uiso   1.00
O37    O     0.56399   0.10947   0.71539   0.00000  Uiso   1.00
O38    O     0.43601   0.89053   0.28461   0.00000  Uiso   1.00
O39    O     0.10947   0.43601   0.71539   0.00000  Uiso   1.00
O40    O     0.89053   0.56399   0.28461   0.00000  Uiso   1.00
O41    O     0.43601   0.89053   0.71539   0.00000  Uiso   1.00
O42    O     0.56399   0.10947   0.28461   0.00000  Uiso   1.00
O43    O     0.89053   0.56399   0.71539   0.00000  Uiso   1.00
O44    O     0.10947   0.43601   0.28461   0.00000  Uiso   1.00
O45    O     0.43601   0.10947   0.28461   0.00000  Uiso   1.00
O46    O     0.56399   0.89053   0.71539   0.00000  Uiso   1.00
O47    O     0.89053   0.43601   0.28461   0.00000  Uiso   1.00
O48    O     0.10947   0.56399   0.71539   0.00000  Uiso   1.00
O49    O     0.56399   0.89053   0.28461   0.00000  Uiso   1.00
O50    O     0.43601   0.10947   0.71539   0.00000  Uiso   1.00
O51    O     0.10947   0.56399   0.28461   0.00000  Uiso   1.00
O52    O     0.89053   0.43601   0.71539   0.00000  Uiso   1.00
C17    C     0.00000   0.50000   0.47332   0.00000  Uiso   1.00
C18    C     0.00000   0.50000   0.52668   0.00000  Uiso   1.00
C19    C     0.50000   0.00000   0.47332   0.00000  Uiso   1.00
C20    C     0.50000   0.00000   0.52668   0.00000  Uiso   1.00
C21    C     0.50000   0.00000   0.97332   0.00000  Uiso   1.00
C22    C     0.50000   0.00000   0.02668   0.00000  Uiso   1.00
C23    C     0.00000   0.50000   0.97332   0.00000  Uiso   1.00
C24    C     0.00000   0.50000   0.02668   0.00000  Uiso   1.00
C25    C     0.00000   0.50000   0.09002   0.00000  Uiso   1.00
C26    C     0.00000   0.50000   0.90999   0.00000  Uiso   1.00
C27    C     0.50000   0.00000   0.09002   0.00000  Uiso   1.00
C28    C     0.50000   0.00000   0.90999   0.00000  Uiso   1.00
C29    C     0.50000   0.00000   0.59002   0.00000  Uiso   1.00
C30    C     0.50000   0.00000   0.40999   0.00000  Uiso   1.00
C31    C     0.00000   0.50000   0.59002   0.00000  Uiso   1.00
C32    C     0.00000   0.50000   0.40999   0.00000  Uiso   1.00
C33    C     0.10513   0.60513   0.25000   0.00000  Uiso   1.00
C34    C     0.89488   0.39488   0.75000   0.00000  Uiso   1.00
C35    C     0.60513   0.89487   0.25000   0.00000  Uiso   1.00
C36    C     0.39488   0.10513   0.75000   0.00000  Uiso   1.00
C37    C     0.89487   0.39487   0.25000   0.00000  Uiso   1.00
C38    C     0.10513   0.60512   0.75000   0.00000  Uiso   1.00
C39    C     0.39487   0.10513   0.25000   0.00000  Uiso   1.00
C40    C     0.60513   0.89487   0.75000   0.00000  Uiso   1.00
C41    C     0.89487   0.60513   0.75000   0.00000  Uiso   1.00
C42    C     0.10513   0.39487   0.25000   0.00000  Uiso   1.00
C43    C     0.39487   0.89487   0.75000   0.00000  Uiso   1.00
C44    C     0.60513   0.10513   0.25000   0.00000  Uiso   1.00
C45    C     0.10513   0.39487   0.75000   0.00000  Uiso   1.00
C46    C     0.89488   0.60513   0.25000   0.00000  Uiso   1.00
C47    C     0.60513   0.10513   0.75000   0.00000  Uiso   1.00
C48    C     0.39488   0.89487   0.25000   0.00000  Uiso   1.00
C49    C     0.20870   0.29210   0.19515   0.00000  Uiso   1.00
C50    C     0.82727   0.74393   0.74947   0.00000  Uiso   1.00
C51    C     0.29209   0.79130   0.19515   0.00000  Uiso   1.00
C52    C     0.74393   0.17273   0.74947   0.00000  Uiso   1.00
C53    C     0.79131   0.70791   0.19515   0.00000  Uiso   1.00
C54    C     0.17273   0.25607   0.74947   0.00000  Uiso   1.00
C55    C     0.70790   0.20870   0.19515   0.00000  Uiso   1.00
C56    C     0.25607   0.82727   0.74947   0.00000  Uiso   1.00
C57    C     0.79129   0.29210   0.80485   0.00000  Uiso   1.00
C58    C     0.17273   0.74393   0.25053   0.00000  Uiso   1.00
C59    C     0.70790   0.79130   0.80485   0.00000  Uiso   1.00
C60    C     0.25607   0.17273   0.25053   0.00000  Uiso   1.00
C61    C     0.20870   0.70790   0.80485   0.00000  Uiso   1.00
C62    C     0.82727   0.25607   0.25053   0.00000  Uiso   1.00
C63    C     0.29210   0.20870   0.80485   0.00000  Uiso   1.00
C64    C     0.74393   0.82727   0.25053   0.00000  Uiso   1.00
C65    C     0.70870   0.79210   0.69515   0.00000  Uiso   1.00
C66    C     0.32727   0.24393   0.24947   0.00000  Uiso   1.00
C67    C     0.79210   0.29129   0.69515   0.00000  Uiso   1.00
C68    C     0.24393   0.67273   0.24947   0.00000  Uiso   1.00
C69    C     0.29130   0.20790   0.69515   0.00000  Uiso   1.00
C70    C     0.67273   0.75607   0.24947   0.00000  Uiso   1.00
C71    C     0.20790   0.70870   0.69515   0.00000  Uiso   1.00
C72    C     0.75607   0.32727   0.24947   0.00000  Uiso   1.00
C73    C     0.29130   0.79209   0.30485   0.00000  Uiso   1.00
C74    C     0.67273   0.24393   0.75053   0.00000  Uiso   1.00
C75    C     0.20790   0.29130   0.30485   0.00000  Uiso   1.00
C76    C     0.75607   0.67273   0.75053   0.00000  Uiso   1.00
C77    C     0.70870   0.20790   0.30485   0.00000  Uiso   1.00
C78    C     0.32727   0.75607   0.75053   0.00000  Uiso   1.00
C79    C     0.79209   0.70870   0.30485   0.00000  Uiso   1.00
C80    C     0.24393   0.32727   0.75053   0.00000  Uiso   1.00
C81    C     0.16852   0.33294   0.19544   0.00000  Uiso   1.00
C82    C     0.86760   0.70323   0.74896   0.00000  Uiso   1.00
C83    C     0.33293   0.83148   0.19544   0.00000  Uiso   1.00
C84    C     0.70323   0.13240   0.74896   0.00000  Uiso   1.00
C85    C     0.83149   0.66707   0.19544   0.00000  Uiso   1.00
C86    C     0.13240   0.29677   0.74896   0.00000  Uiso   1.00
C87    C     0.66706   0.16852   0.19544   0.00000  Uiso   1.00
C88    C     0.29677   0.86760   0.74896   0.00000  Uiso   1.00
C89    C     0.83148   0.33294   0.80456   0.00000  Uiso   1.00
C90    C     0.13240   0.70323   0.25104   0.00000  Uiso   1.00
C91    C     0.66706   0.83148   0.80456   0.00000  Uiso   1.00
C92    C     0.29677   0.13240   0.25104   0.00000  Uiso   1.00
C93    C     0.16852   0.66706   0.80456   0.00000  Uiso   1.00
C94    C     0.86760   0.29677   0.25104   0.00000  Uiso   1.00
C95    C     0.33294   0.16852   0.80456   0.00000  Uiso   1.00
C96    C     0.70323   0.86760   0.25104   0.00000  Uiso   1.00
C97    C     0.66852   0.83294   0.69544   0.00000  Uiso   1.00
C98    C     0.36760   0.20323   0.24896   0.00000  Uiso   1.00
C99    C     0.83294   0.33148   0.69544   0.00000  Uiso   1.00
C100   C     0.20323   0.63240   0.24896   0.00000  Uiso   1.00
C101   C     0.33148   0.16706   0.69544   0.00000  Uiso   1.00
C102   C     0.63240   0.79677   0.24896   0.00000  Uiso   1.00
C103   C     0.16706   0.66852   0.69544   0.00000  Uiso   1.00
C104   C     0.79677   0.36760   0.24896   0.00000  Uiso   1.00
C105   C     0.33149   0.83293   0.30456   0.00000  Uiso   1.00
C106   C     0.63240   0.20323   0.75104   0.00000  Uiso   1.00
C107   C     0.16706   0.33148   0.30456   0.00000  Uiso   1.00
C108   C     0.79677   0.63240   0.75104   0.00000  Uiso   1.00
C109   C     0.66852   0.16706   0.30456   0.00000  Uiso   1.00
C110   C     0.36760   0.79677   0.75104   0.00000  Uiso   1.00
C111   C     0.83293   0.66851   0.30456   0.00000  Uiso   1.00
C112   C     0.20323   0.36760   0.75104   0.00000  Uiso   1.00
C113   C     0.14753   0.35247   0.25000   0.00000  Uiso   1.00
C114   C     0.85245   0.64755   0.75000   0.00000  Uiso   1.00
C115   C     0.35247   0.85247   0.25000   0.00000  Uiso   1.00
C116   C     0.64755   0.14755   0.75000   0.00000  Uiso   1.00
C117   C     0.85247   0.64753   0.25000   0.00000  Uiso   1.00
C118   C     0.14755   0.35245   0.75000   0.00000  Uiso   1.00
C119   C     0.64753   0.14753   0.25000   0.00000  Uiso   1.00
C120   C     0.35245   0.85245   0.75000   0.00000  Uiso   1.00
C121   C     0.85247   0.35247   0.75000   0.00000  Uiso   1.00
C122   C     0.14755   0.64755   0.25000   0.00000  Uiso   1.00
C123   C     0.64753   0.85247   0.75000   0.00000  Uiso   1.00
C124   C     0.35245   0.14755   0.25000   0.00000  Uiso   1.00
C125   C     0.14753   0.64753   0.75000   0.00000  Uiso   1.00
C126   C     0.85245   0.35245   0.25000   0.00000  Uiso   1.00
C127   C     0.35247   0.14753   0.75000   0.00000  Uiso   1.00
C128   C     0.64755   0.85245   0.25000   0.00000  Uiso   1.00
O53    O     0.22832   0.27507   0.14029   0.00000  Uiso   1.00
H1     H     0.25553   0.24554   0.14493   0.00000  Uiso   1.00
O54    O     0.84456   0.79786   0.74757   0.00000  Uiso   1.00
H2     H     0.81317   0.82322   0.74936   0.00000  Uiso   1.00
O55    O     0.27506   0.77169   0.14029   0.00000  Uiso   1.00
H3     H     0.24553   0.74448   0.14493   0.00000  Uiso   1.00
O56    O     0.79786   0.15544   0.74758   0.00000  Uiso   1.00
H4     H     0.82322   0.18683   0.74937   0.00000  Uiso   1.00
O57    O     0.77170   0.72494   0.14029   0.00000  Uiso   1.00
H5     H     0.74448   0.75447   0.14493   0.00000  Uiso   1.00
O58    O     0.15544   0.20214   0.74757   0.00000  Uiso   1.00
H6     H     0.18683   0.17678   0.74936   0.00000  Uiso   1.00
O59    O     0.72493   0.22832   0.14029   0.00000  Uiso   1.00
H7     H     0.75446   0.25553   0.14493   0.00000  Uiso   1.00
O60    O     0.20214   0.84456   0.74757   0.00000  Uiso   1.00
H8     H     0.17678   0.81317   0.74936   0.00000  Uiso   1.00
O61    O     0.77167   0.27508   0.85971   0.00000  Uiso   1.00
H9     H     0.74447   0.24555   0.85507   0.00000  Uiso   1.00
O62    O     0.15544   0.79786   0.25244   0.00000  Uiso   1.00
H10    H     0.18683   0.82321   0.25065   0.00000  Uiso   1.00
O63    O     0.72493   0.77168   0.85971   0.00000  Uiso   1.00
H11    H     0.75446   0.74447   0.85507   0.00000  Uiso   1.00
O64    O     0.20214   0.15544   0.25243   0.00000  Uiso   1.00
H12    H     0.17678   0.18683   0.25064   0.00000  Uiso   1.00
O65    O     0.22832   0.72492   0.85971   0.00000  Uiso   1.00
H13    H     0.25553   0.75446   0.85507   0.00000  Uiso   1.00
O66    O     0.84456   0.20214   0.25243   0.00000  Uiso   1.00
H14    H     0.81317   0.17678   0.25064   0.00000  Uiso   1.00
O67    O     0.27508   0.22832   0.85971   0.00000  Uiso   1.00
H15    H     0.24554   0.25553   0.85507   0.00000  Uiso   1.00
O68    O     0.79786   0.84456   0.25244   0.00000  Uiso   1.00
H16    H     0.82322   0.81318   0.25065   0.00000  Uiso   1.00
O69    O     0.72832   0.77507   0.64029   0.00000  Uiso   1.00
H17    H     0.75553   0.74554   0.64493   0.00000  Uiso   1.00
O70    O     0.34456   0.29786   0.24757   0.00000  Uiso   1.00
H18    H     0.31317   0.32322   0.24936   0.00000  Uiso   1.00
O71    O     0.77508   0.27167   0.64029   0.00000  Uiso   1.00
H19    H     0.74555   0.24447   0.64493   0.00000  Uiso   1.00
O72    O     0.29786   0.65544   0.24756   0.00000  Uiso   1.00
H20    H     0.32322   0.68682   0.24935   0.00000  Uiso   1.00
O73    O     0.27168   0.22492   0.64029   0.00000  Uiso   1.00
H21    H     0.24447   0.25446   0.64493   0.00000  Uiso   1.00
O74    O     0.65544   0.70214   0.24756   0.00000  Uiso   1.00
H22    H     0.68683   0.67679   0.24935   0.00000  Uiso   1.00
O75    O     0.22492   0.72832   0.64029   0.00000  Uiso   1.00
H23    H     0.25446   0.75553   0.64493   0.00000  Uiso   1.00
O76    O     0.70214   0.34456   0.24757   0.00000  Uiso   1.00
H24    H     0.67678   0.31318   0.24936   0.00000  Uiso   1.00
O77    O     0.27169   0.77506   0.35971   0.00000  Uiso   1.00
H25    H     0.24448   0.74553   0.35507   0.00000  Uiso   1.00
O78    O     0.65544   0.29786   0.75242   0.00000  Uiso   1.00
H26    H     0.68683   0.32322   0.75064   0.00000  Uiso   1.00
O79    O     0.22493   0.27168   0.35971   0.00000  Uiso   1.00
H27    H     0.25446   0.24447   0.35507   0.00000  Uiso   1.00
O80    O     0.70214   0.65544   0.75243   0.00000  Uiso   1.00
H28    H     0.67678   0.68683   0.75064   0.00000  Uiso   1.00
O81    O     0.72832   0.22493   0.35971   0.00000  Uiso   1.00
H29    H     0.75553   0.25446   0.35507   0.00000  Uiso   1.00
O82    O     0.34456   0.70214   0.75243   0.00000  Uiso   1.00
H30    H     0.31318   0.67678   0.75064   0.00000  Uiso   1.00
O83    O     0.77506   0.72831   0.35971   0.00000  Uiso   1.00
H31    H     0.74553   0.75552   0.35507   0.00000  Uiso   1.00
O84    O     0.29786   0.34456   0.75243   0.00000  Uiso   1.00
H32    H     0.32322   0.31317   0.75064   0.00000  Uiso   1.00
N1     N     0.15059   0.35592   0.13977   0.00000  Uiso   1.00
O85    O     0.15138   0.40860   0.13161   0.00000  Uiso   1.00
O86    O     0.13702   0.32416   0.09567   0.00000  Uiso   1.00
N2     N     0.92419   0.71894   0.74516   0.00000  Uiso   1.00
O87    O     0.95545   0.69847   0.70389   0.00000  Uiso   1.00
O88    O     0.94369   0.75652   0.78028   0.00000  Uiso   1.00
N3     N     0.35591   0.84942   0.13977   0.00000  Uiso   1.00
O89    O     0.40859   0.84863   0.13160   0.00000  Uiso   1.00
O90    O     0.32415   0.86300   0.09568   0.00000  Uiso   1.00
N4     N     0.71894   0.07581   0.74517   0.00000  Uiso   1.00
O91    O     0.69847   0.04455   0.70389   0.00000  Uiso   1.00
O92    O     0.75652   0.05631   0.78028   0.00000  Uiso   1.00
N5     N     0.84942   0.64410   0.13976   0.00000  Uiso   1.00
O93    O     0.84863   0.59142   0.13160   0.00000  Uiso   1.00
O94    O     0.86301   0.67586   0.09568   0.00000  Uiso   1.00
N6     N     0.07581   0.28106   0.74517   0.00000  Uiso   1.00
O95    O     0.04455   0.30153   0.70389   0.00000  Uiso   1.00
O96    O     0.05631   0.24348   0.78028   0.00000  Uiso   1.00
N7     N     0.64408   0.15059   0.13977   0.00000  Uiso   1.00
O97    O     0.59140   0.15138   0.13162   0.00000  Uiso   1.00
O98    O     0.67584   0.13702   0.09567   0.00000  Uiso   1.00
N8     N     0.28106   0.92419   0.74517   0.00000  Uiso   1.00
O99    O     0.30153   0.95545   0.70389   0.00000  Uiso   1.00
O100   O     0.24348   0.94369   0.78028   0.00000  Uiso   1.00
N9     N     0.84940   0.35593   0.86023   0.00000  Uiso   1.00
O101   O     0.84862   0.40861   0.86838   0.00000  Uiso   1.00
O102   O     0.86297   0.32417   0.90433   0.00000  Uiso   1.00
N10    N     0.07581   0.71894   0.25484   0.00000  Uiso   1.00
O103   O     0.04455   0.69847   0.29612   0.00000  Uiso   1.00
O104   O     0.05631   0.75652   0.21973   0.00000  Uiso   1.00
N11    N     0.64408   0.84941   0.86023   0.00000  Uiso   1.00
O105   O     0.59140   0.84862   0.86839   0.00000  Uiso   1.00
O106   O     0.67584   0.86298   0.90433   0.00000  Uiso   1.00
N12    N     0.28106   0.07581   0.25484   0.00000  Uiso   1.00
O107   O     0.30153   0.04455   0.29612   0.00000  Uiso   1.00
O108   O     0.24348   0.05631   0.21972   0.00000  Uiso   1.00
N13    N     0.15059   0.64408   0.86023   0.00000  Uiso   1.00
O109   O     0.15138   0.59139   0.86838   0.00000  Uiso   1.00
O110   O     0.13702   0.67583   0.90433   0.00000  Uiso   1.00
N14    N     0.92419   0.28106   0.25484   0.00000  Uiso   1.00
O111   O     0.95545   0.30153   0.29611   0.00000  Uiso   1.00
O112   O     0.94369   0.24348   0.21972   0.00000  Uiso   1.00
N15    N     0.35592   0.15059   0.86023   0.00000  Uiso   1.00
O113   O     0.40861   0.15138   0.86838   0.00000  Uiso   1.00
O114   O     0.32417   0.13702   0.90433   0.00000  Uiso   1.00
N16    N     0.71894   0.92419   0.25484   0.00000  Uiso   1.00
O115   O     0.69847   0.95545   0.29612   0.00000  Uiso   1.00
O116   O     0.75652   0.94369   0.21973   0.00000  Uiso   1.00
N17    N     0.65059   0.85592   0.63977   0.00000  Uiso   1.00
O117   O     0.65138   0.90860   0.63162   0.00000  Uiso   1.00
O118   O     0.63702   0.82416   0.59567   0.00000  Uiso   1.00
N18    N     0.42419   0.21894   0.24516   0.00000  Uiso   1.00
O119   O     0.45545   0.19847   0.20389   0.00000  Uiso   1.00
O120   O     0.44369   0.25652   0.28028   0.00000  Uiso   1.00
N19    N     0.85593   0.34940   0.63977   0.00000  Uiso   1.00
O121   O     0.90861   0.34862   0.63162   0.00000  Uiso   1.00
O122   O     0.82417   0.36297   0.59567   0.00000  Uiso   1.00
N20    N     0.21894   0.57581   0.24516   0.00000  Uiso   1.00
O123   O     0.19847   0.54455   0.20388   0.00000  Uiso   1.00
O124   O     0.25652   0.55631   0.28027   0.00000  Uiso   1.00
N21    N     0.34941   0.14408   0.63977   0.00000  Uiso   1.00
O125   O     0.34862   0.09139   0.63162   0.00000  Uiso   1.00
O126   O     0.36298   0.17583   0.59567   0.00000  Uiso   1.00
N22    N     0.57581   0.78106   0.24516   0.00000  Uiso   1.00
O127   O     0.54455   0.80153   0.20388   0.00000  Uiso   1.00
O128   O     0.55631   0.74348   0.28027   0.00000  Uiso   1.00
N23    N     0.14408   0.65059   0.63977   0.00000  Uiso   1.00
O129   O     0.09139   0.65138   0.63162   0.00000  Uiso   1.00
O130   O     0.17583   0.63702   0.59567   0.00000  Uiso   1.00
N24    N     0.78106   0.42419   0.24517   0.00000  Uiso   1.00
O131   O     0.80153   0.45545   0.20389   0.00000  Uiso   1.00
O132   O     0.74348   0.44369   0.28028   0.00000  Uiso   1.00
N25    N     0.34942   0.85591   0.36024   0.00000  Uiso   1.00
O133   O     0.34863   0.90859   0.36839   0.00000  Uiso   1.00
O134   O     0.36300   0.82415   0.40432   0.00000  Uiso   1.00
N26    N     0.57581   0.21894   0.75483   0.00000  Uiso   1.00
O135   O     0.54455   0.19847   0.79611   0.00000  Uiso   1.00
O136   O     0.55631   0.25652   0.71972   0.00000  Uiso   1.00
N27    N     0.14408   0.34941   0.36023   0.00000  Uiso   1.00
O137   O     0.09140   0.34862   0.36839   0.00000  Uiso   1.00
O138   O     0.17584   0.36298   0.40433   0.00000  Uiso   1.00
N28    N     0.78106   0.57581   0.75484   0.00000  Uiso   1.00
O139   O     0.80153   0.54455   0.79611   0.00000  Uiso   1.00
O140   O     0.74348   0.55631   0.71972   0.00000  Uiso   1.00
N29    N     0.65059   0.14408   0.36023   0.00000  Uiso   1.00
O141   O     0.65138   0.09140   0.36839   0.00000  Uiso   1.00
O142   O     0.63702   0.17584   0.40433   0.00000  Uiso   1.00
N30    N     0.42419   0.78106   0.75483   0.00000  Uiso   1.00
O143   O     0.45545   0.80153   0.79611   0.00000  Uiso   1.00
O144   O     0.44369   0.74348   0.71972   0.00000  Uiso   1.00
N31    N     0.85590   0.65058   0.36024   0.00000  Uiso   1.00
O145   O     0.90858   0.65137   0.36840   0.00000  Uiso   1.00
O146   O     0.82414   0.63699   0.40432   0.00000  Uiso   1.00
N32    N     0.21894   0.42419   0.75484   0.00000  Uiso   1.00
O147   O     0.19847   0.45545   0.79611   0.00000  Uiso   1.00
O148   O     0.25652   0.44369   0.71972   0.00000  Uiso   1.00
loop_
_geom_bond_atom_site_label_1
_geom_bond_atom_site_label_2
_geom_bond_distance
_geom_bond_site_symmetry_2
_ccdc_geom_bond_type
Zn1    O16     1.914   .     S
Zn1    O44     1.935   .     S
Zn1    O1      1.939   .     S
Zn1    O51     1.935   .     S
Zn2    O2      1.939   1_655 S
Zn2    O15     1.914   .     S
Zn2    O43     1.935   .     S
Zn2    O52     1.935   .     S
Zn3    O49     1.935   .     S
Zn3    O18     1.914   .     S
Zn3    O38     1.935   .     S
Zn3    O3      1.939   1_565 S
Zn4    O37     1.935   .     S
Zn4    O17     1.914   .     S
Zn4    O50     1.935   .     S
Zn4    O4      1.939   .     S
Zn5    O40     1.935   .     S
Zn5    O47     1.935   .     S
Zn5    O20     1.914   .     S
Zn5    O1      1.939   1_655 S
Zn6    O39     1.935   .     S
Zn6    O48     1.935   .     S
Zn6    O19     1.914   .     S
Zn6    O2      1.939   .     S
Zn7    O45     1.935   .     S
Zn7    O14     1.914   .     S
Zn7    O42     1.935   .     S
Zn7    O3      1.939   .     S
Zn8    O13     1.914   .     S
Zn8    O41     1.935   .     S
Zn8    O4      1.939   1_565 S
Zn8    O46     1.935   .     S
Zn9    O35     1.935   .     S
Zn9    O8      1.914   .     S
Zn9    O4      1.939   .     S
Zn9    O28     1.935   1_545 S
Zn10   O3      1.939   .     S
Zn10   O7      1.914   .     S
Zn10   O27     1.935   .     S
Zn10   O36     1.935   1_545 S
Zn11   O10     1.914   .     S
Zn11   O33     1.935   .     S
Zn11   O2      1.939   .     S
Zn11   O22     1.935   1_455 S
Zn12   O1      1.939   .     S
Zn12   O21     1.935   .     S
Zn12   O9      1.914   .     S
Zn12   O34     1.935   1_455 S
Zn13   O12     1.914   .     S
Zn13   O24     1.935   .     S
Zn13   O4      1.939   .     S
Zn13   O31     1.935   1_545 S
Zn14   O11     1.914   .     S
Zn14   O32     1.935   .     S
Zn14   O3      1.939   .     S
Zn14   O23     1.935   1_545 S
Zn15   O26     1.935   .     S
Zn15   O6      1.914   .     S
Zn15   O2      1.939   .     S
Zn15   O29     1.935   1_455 S
Zn16   O5      1.914   .     S
Zn16   O25     1.935   1_455 S
Zn16   O1      1.939   .     S
Zn16   O30     1.935   .     S
C1     C49     1.419   .     A
C1     C75     1.419   .     A
C1     C12     1.474   .     S
C2     C50     1.419   .     A
C2     C76     1.419   .     A
C2     C11     1.474   .     S
C3     C73     1.419   .     A
C3     C10     1.474   .     S
C3     C51     1.419   .     A
C4     C52     1.419   .     A
C4     C9      1.474   .     S
C4     C74     1.419   .     A
C5     C79     1.419   .     A
C5     C16     1.474   .     S
C5     C53     1.419   .     A
C6     C54     1.419   .     A
C6     C80     1.419   .     A
C6     C15     1.474   .     S
C7     C55     1.419   .     A
C7     C77     1.419   .     A
C7     C14     1.474   .     S
C8     C13     1.474   .     S
C8     C78     1.419   .     A
C8     C56     1.419   .     A
C9     C67     1.419   .     A
C9     C57     1.419   .     A
C10    C58     1.419   .     A
C10    C68     1.419   .     A
C11    C59     1.419   .     A
C11    C65     1.419   .     A
C12    C66     1.419   .     A
C12    C60     1.419   .     A
C13    C61     1.419   .     A
C13    C71     1.419   .     A
C14    C62     1.419   .     A
C14    C72     1.419   .     A
C15    C69     1.419   .     A
C15    C63     1.419   .     A
C16    C70     1.419   .     A
C16    C64     1.419   .     A
O1     Zn5     1.939   1_455 S
O2     Zn2     1.939   1_455 S
O3     Zn3     1.939   1_545 S
O4     Zn8     1.939   1_545 S
O5     C25     1.277   .     S
O6     C26     1.277   .     A
O7     C27     1.277   .     A
O8     C28     1.277   .     A
O9     C25     1.277   .     A
O10    C26     1.277   .     A
O11    C27     1.277   .     A
O12    C28     1.277   .     A
O13    C29     1.277   1_565 S
O14    C30     1.277   .     A
O15    C31     1.277   1_655 S
O16    C32     1.277   .     A
O17    C29     1.277   .     A
O18    C30     1.277   1_565 S
O19    C31     1.277   .     A
O20    C32     1.277   1_655 S
O21    C33     1.276   .     A
O22    C34     1.276   .     A
O22    Zn11    1.935   1_655 S
O23    C35     1.276   .     A
O23    Zn14    1.935   1_565 S
O24    C36     1.276   .     A
O25    C37     1.276   .     A
O25    Zn16    1.935   1_655 S
O26    C38     1.276   .     A
O27    C39     1.276   .     A
O28    C40     1.276   .     A
O28    Zn9     1.935   1_565 S
O29    C41     1.276   .     A
O29    Zn15    1.935   1_655 S
O30    C42     1.276   .     A
O31    C43     1.276   .     A
O31    Zn13    1.935   1_565 S
O32    C44     1.276   .     A
O33    C45     1.276   .     A
O34    C46     1.276   .     A
O34    Zn12    1.935   1_655 S
O35    C47     1.276   .     A
O36    C48     1.276   .     A
O36    Zn10    1.935   1_565 S
O37    C47     1.276   .     A
O38    C48     1.276   .     A
O39    C45     1.276   .     A
O40    C46     1.276   .     A
O41    C43     1.276   .     A
O42    C44     1.276   .     A
O43    C41     1.276   .     A
O44    C42     1.276   .     A
O45    C39     1.276   .     A
O46    C40     1.276   .     A
O47    C37     1.276   .     A
O48    C38     1.276   .     A
O49    C35     1.276   .     A
O50    C36     1.276   .     A
O51    C33     1.276   .     A
O52    C34     1.276   .     A
C17    C18     1.198   .     T
C17    C32     1.422   .     S
C18    C31     1.422   .     S
C19    C20     1.198   .     T
C19    C30     1.422   .     S
C20    C29     1.422   .     S
C21    C28     1.422   .     S
C21    C22     1.198   1_556 S
C22    C27     1.422   .     S
C22    C21     1.198   1_554 S
C23    C24     1.198   1_556 S
C23    C26     1.422   .     S
C24    C25     1.422   .     S
C24    C23     1.198   1_554 S
C29    O13     1.277   1_545 S
C30    O18     1.277   1_545 S
C31    O15     1.277   1_455 S
C32    O20     1.277   1_455 S
C33    C122    1.467   .     S
C34    C121    1.467   .     S
C35    C128    1.467   .     S
C36    C127    1.467   .     S
C37    C126    1.467   .     S
C38    C125    1.467   .     S
C39    C124    1.467   .     S
C40    C123    1.467   .     S
C41    C114    1.467   .     S
C42    C113    1.467   .     S
C43    C120    1.467   .     S
C44    C119    1.467   .     S
C45    C118    1.467   .     S
C46    C117    1.467   .     S
C47    C116    1.467   .     S
C48    C115    1.467   .     S
C49    C81     1.401   .     A
C49    O53     1.386   .     S
C50    C82     1.401   .     A
C50    O54     1.386   .     S
C51    O55     1.386   .     S
C51    C83     1.401   .     A
C52    C84     1.401   .     A
C52    O56     1.386   .     S
C53    O57     1.386   .     S
C53    C85     1.401   .     A
C54    O58     1.386   .     S
C54    C86     1.401   .     A
C55    C87     1.401   .     A
C55    O59     1.386   .     S
C56    O60     1.386   .     S
C56    C88     1.401   .     A
C57    O61     1.386   .     S
C57    C89     1.401   .     A
C58    C90     1.401   .     A
C58    O62     1.386   .     S
C59    O63     1.386   .     S
C59    C91     1.401   .     A
C60    O64     1.386   .     S
C60    C92     1.401   .     A
C61    C93     1.401   .     A
C61    O65     1.386   .     S
C62    O66     1.386   .     S
C62    C94     1.401   .     A
C63    C95     1.401   .     A
C63    O67     1.386   .     S
C64    O68     1.386   .     S
C64    C96     1.401   .     A
C65    C97     1.401   .     A
C65    O69     1.386   .     S
C66    C98     1.401   .     A
C66    O70     1.386   .     S
C67    C99     1.401   .     A
C67    O71     1.386   .     S
C68    O72     1.386   .     S
C68    C100    1.401   .     A
C69    O73     1.386   .     S
C69    C101    1.401   .     A
C70    O74     1.386   .     S
C70    C102    1.401   .     A
C71    C103    1.401   .     A
C71    O75     1.386   .     S
C72    O76     1.386   .     S
C72    C104    1.401   .     A
C73    C105    1.401   .     A
C73    O77     1.386   .     S
C74    C106    1.401   .     A
C74    O78     1.386   .     S
C75    C107    1.401   .     A
C75    O79     1.386   .     S
C76    C108    1.401   .     A
C76    O80     1.386   .     S
C77    O81     1.386   .     S
C77    C109    1.401   .     A
C78    C110    1.401   .     A
C78    O82     1.386   .     S
C79    C111    1.401   .     A
C79    O83     1.386   .     S
C80    C112    1.401   .     A
C80    O84     1.386   .     S
C81    N1      1.439   .     S
C81    C113    1.411   .     A
C82    N2      1.439   .     S
C82    C114    1.411   .     A
C83    C115    1.411   .     A
C83    N3      1.439   .     S
C84    N4      1.439   .     S
C84    C116    1.411   .     A
C85    N5      1.439   .     S
C85    C117    1.411   .     A
C86    C118    1.411   .     A
C86    N6      1.439   .     S
C87    C119    1.411   .     A
C87    N7      1.439   .     S
C88    C120    1.411   .     A
C88    N8      1.439   .     S
C89    N9      1.439   .     S
C89    C121    1.411   .     A
C90    C122    1.411   .     A
C90    N10     1.439   .     S
C91    N11     1.439   .     S
C91    C123    1.411   .     A
C92    C124    1.411   .     A
C92    N12     1.439   .     S
C93    C125    1.411   .     A
C93    N13     1.439   .     S
C94    N14     1.439   .     S
C94    C126    1.411   .     A
C95    C127    1.411   .     A
C95    N15     1.439   .     S
C96    C128    1.411   .     A
C96    N16     1.439   .     S
C97    N17     1.439   .     S
C97    C123    1.411   .     A
C98    C124    1.411   .     A
C98    N18     1.439   .     S
C99    C121    1.411   .     A
C99    N19     1.439   .     S
C100   C122    1.411   .     A
C100   N20     1.439   .     S
C101   C127    1.411   .     A
C101   N21     1.439   .     S
C102   C128    1.411   .     A
C102   N22     1.439   .     S
C103   C125    1.411   .     A
C103   N23     1.439   .     S
C104   C126    1.411   .     A
C104   N24     1.439   .     S
C105   C115    1.411   .     A
C105   N25     1.439   .     S
C106   C116    1.411   .     A
C106   N26     1.439   .     S
C107   N27     1.439   .     S
C107   C113    1.411   .     A
C108   C114    1.411   .     A
C108   N28     1.439   .     S
C109   C119    1.411   .     A
C109   N29     1.439   .     S
C110   C120    1.411   .     A
C110   N30     1.439   .     S
C111   N31     1.439   .     S
C111   C117    1.411   .     A
C112   N32     1.439   .     S
C112   C118    1.411   .     A
O53    H1      0.988   .     S
O54    H2      0.988   .     S
O55    H3      0.988   .     S
O56    H4      0.988   .     S
O57    H5      0.988   .     S
O58    H6      0.988   .     S
O59    H7      0.988   .     S
O60    H8      0.988   .     S
O61    H9      0.988   .     S
O62    H10     0.988   .     S
O63    H11     0.988   .     S
O64    H12     0.988   .     S
O65    H13     0.988   .     S
O66    H14     0.988   .     S
O67    H15     0.988   .     S
O68    H16     0.988   .     S
O69    H17     0.988   .     S
O70    H18     0.988   .     S
O71    H19     0.988   .     S
O72    H20     0.988   .     S
O73    H21     0.988   .     S
O74    H22     0.988   .     S
O75    H23     0.988   .     S
O76    H24     0.988   .     S
O77    H25     0.988   .     S
O78    H26     0.988   .     S
O79    H27     0.988   .     S
O80    H28     0.988   .     S
O81    H29     0.988   .     S
O82    H30     0.988   .     S
O83    H31     0.988   .     S
O84    H32     0.988   .     S
N1     O85     1.301   .     A
N1     O86     1.301   .     A
N2     O87     1.301   .     A
N2     O88     1.301   .     A
N3     O89     1.302   .     A
N3     O90     1.301   .     A
N4     O92     1.301   .     A
N4     O91     1.301   .     A
N5     O94     1.301   .     A
N5     O93     1.301   .     A
N6     O95     1.301   .     A
N6     O96     1.301   .     A
N7     O98     1.301   .     A
N7     O97     1.301   .     A
N8     O99     1.301   .     A
N8     O100    1.301   .     A
N9     O102    1.301   .     A
N9     O101    1.301   .     A
N10    O104    1.301   .     A
N10    O103    1.301   .     A
N11    O105    1.301   .     A
N11    O106    1.301   .     A
N12    O107    1.302   .     A
N12    O108    1.301   .     A
N13    O110    1.301   .     A
N13    O109    1.301   .     A
N14    O111    1.301   .     A
N14    O112    1.301   .     A
N15    O114    1.301   .     A
N15    O113    1.301   .     A
N16    O115    1.302   .     A
N16    O116    1.301   .     A
N17    O118    1.301   .     A
N17    O117    1.301   .     A
N18    O119    1.301   .     A
N18    O120    1.301   .     A
N19    O122    1.301   .     A
N19    O121    1.301   .     A
N20    O124    1.301   .     A
N20    O123    1.301   .     A
N21    O125    1.301   .     A
N21    O126    1.301   .     A
N22    O127    1.301   .     A
N22    O128    1.301   .     A
N23    O130    1.301   .     A
N23    O129    1.301   .     A
N24    O131    1.301   .     A
N24    O132    1.301   .     A
N25    O133    1.301   .     A
N25    O134    1.301   .     A
N26    O135    1.301   .     A
N26    O136    1.301   .     A
N27    O137    1.301   .     A
N27    O138    1.301   .     A
N28    O139    1.301   .     A
N28    O140    1.301   .     A
N29    O142    1.301   .     A
N29    O141    1.301   .     A
N30    O143    1.301   .     A
N30    O144    1.301   .     A
N31    O145    1.301   .     A
N31    O146    1.301   .     A
N32    O147    1.301   .     A
N32    O148    1.301   .     A
