data_str_m1_o2_o5_pcu_sym.29
_audit_creation_date              2020-01-03
_audit_creation_method            'Materials Studio'
_symmetry_space_group_name_H-M    'P1'
_symmetry_Int_Tables_number       1
_symmetry_cell_setting            triclinic
loop_
_symmetry_equiv_pos_as_xyz
  x,y,z
_cell_length_a                    24.4371
_cell_length_b                    24.4583
_cell_length_c                    22.4422
_cell_angle_alpha                 89.7983
_cell_angle_beta                  90.1973
_cell_angle_gamma                 89.9158
loop_
_atom_site_label
_atom_site_type_symbol
_atom_site_fract_x
_atom_site_fract_y
_atom_site_fract_z
_atom_site_U_iso_or_equiv
_atom_site_adp_type
_atom_site_occupancy
C1     C     0.23394   0.27659   0.25486   0.00000  Uiso   1.00
C2     C     0.22864   0.72937   0.25022   0.00000  Uiso   1.00
C3     C     0.16533   0.67142   0.19578   0.00000  Uiso   1.00
C4     C     0.36921   0.20334   0.75797   0.00000  Uiso   1.00
C5     C     0.63479   0.79696   0.25405   0.00000  Uiso   1.00
C6     C     0.17060   0.66516   0.80433   0.00000  Uiso   1.00
C7     C     0.79587   0.36836   0.24916   0.00000  Uiso   1.00
C8     C     0.36582   0.79851   0.23483   0.00000  Uiso   1.00
C9     C     0.66286   0.17235   0.80400   0.00000  Uiso   1.00
C10    C     0.20443   0.37126   0.24703   0.00000  Uiso   1.00
C11    C     0.79732   0.63359   0.75553   0.00000  Uiso   1.00
C12    C     0.66473   0.17072   0.19498   0.00000  Uiso   1.00
C13    C     0.73177   0.77458   0.75640   0.00000  Uiso   1.00
C14    C     0.36703   0.79633   0.74795   0.00000  Uiso   1.00
C15    C     0.83048   0.66724   0.19645   0.00000  Uiso   1.00
C16    C     0.19965   0.36560   0.77519   0.00000  Uiso   1.00
C17    C     0.14944   0.35438   0.25105   0.00000  Uiso   1.00
C18    C     0.85256   0.64756   0.74736   0.00000  Uiso   1.00
C19    C     0.35238   0.85266   0.25005   0.00000  Uiso   1.00
C20    C     0.64737   0.14735   0.75003   0.00000  Uiso   1.00
C21    C     0.85326   0.64833   0.25057   0.00000  Uiso   1.00
C22    C     0.14759   0.35260   0.75255   0.00000  Uiso   1.00
C23    C     0.64711   0.14803   0.24953   0.00000  Uiso   1.00
C24    C     0.27532   0.23292   0.23864   0.00000  Uiso   1.00
C25    C     0.35216   0.85217   0.75005   0.00000  Uiso   1.00
C26    C     0.85180   0.35186   0.75000   0.00000  Uiso   1.00
C27    C     0.14781   0.64790   0.25009   0.00000  Uiso   1.00
C28    C     0.64866   0.85377   0.75158   0.00000  Uiso   1.00
C29    C     0.35359   0.14896   0.24505   0.00000  Uiso   1.00
C30    C     0.14756   0.64750   0.74999   0.00000  Uiso   1.00
C31    C     0.85161   0.35283   0.24917   0.00000  Uiso   1.00
C32    C     0.35374   0.14862   0.74849   0.00000  Uiso   1.00
C33    C     0.64866   0.85298   0.25148   0.00000  Uiso   1.00
C34    C     0.22852   0.72851   0.75000   0.00000  Uiso   1.00
C35    C     0.76957   0.27262   0.24854   0.00000  Uiso   1.00
C36    C     0.27457   0.23173   0.74358   0.00000  Uiso   1.00
C37    C     0.73114   0.77315   0.25213   0.00000  Uiso   1.00
C38    C     0.00008   0.50005   0.47332   0.00000  Uiso   1.00
C39    C     0.99992   0.50005   0.52668   0.00000  Uiso   1.00
C40    C     0.50003   0.99993   0.47332   0.00000  Uiso   1.00
C41    C     0.77148   0.72889   0.74155   0.00000  Uiso   1.00
C42    C     0.50003   0.00009   0.52668   0.00000  Uiso   1.00
C43    C     0.50009   0.00003   0.97332   0.00000  Uiso   1.00
C44    C     0.49993   0.00003   0.02668   0.00000  Uiso   1.00
C45    C     0.00002   0.49993   0.97332   0.00000  Uiso   1.00
C46    C     0.00002   0.50009   0.02668   0.00000  Uiso   1.00
C47    C     0.00001   0.50006   0.09002   0.00000  Uiso   1.00
C48    C     0.00001   0.49994   0.90998   0.00000  Uiso   1.00
C49    C     0.49994   0.00001   0.09001   0.00000  Uiso   1.00
C50    C     0.50006   0.00002   0.90999   0.00000  Uiso   1.00
C51    C     0.50002   0.00006   0.59002   0.00000  Uiso   1.00
C52    C     0.27124   0.77185   0.25024   0.00000  Uiso   1.00
C53    C     0.50001   0.99994   0.40998   0.00000  Uiso   1.00
C54    C     0.99994   0.50002   0.59000   0.00000  Uiso   1.00
C55    C     0.00006   0.50003   0.40999   0.00000  Uiso   1.00
C56    C     0.10529   0.60528   0.25001   0.00000  Uiso   1.00
C57    C     0.89459   0.39461   0.74999   0.00000  Uiso   1.00
C58    C     0.60537   0.89486   0.25029   0.00000  Uiso   1.00
C59    C     0.39534   0.10555   0.75027   0.00000  Uiso   1.00
C60    C     0.89467   0.39488   0.24986   0.00000  Uiso   1.00
C61    C     0.10514   0.60512   0.74999   0.00000  Uiso   1.00
C62    C     0.39458   0.10506   0.24982   0.00000  Uiso   1.00
C63    C     0.72810   0.22825   0.75004   0.00000  Uiso   1.00
C64    C     0.60556   0.89535   0.74976   0.00000  Uiso   1.00
C65    C     0.89461   0.60487   0.75007   0.00000  Uiso   1.00
C66    C     0.10569   0.39542   0.24969   0.00000  Uiso   1.00
C67    C     0.39476   0.89476   0.75002   0.00000  Uiso   1.00
C68    C     0.60510   0.10519   0.24994   0.00000  Uiso   1.00
C69    C     0.10489   0.39462   0.74991   0.00000  Uiso   1.00
C70    C     0.89496   0.60525   0.25002   0.00000  Uiso   1.00
C71    C     0.60511   0.10510   0.75001   0.00000  Uiso   1.00
C72    C     0.39483   0.89488   0.25000   0.00000  Uiso   1.00
C73    C     0.18087   0.26283   0.27537   0.00000  Uiso   1.00
C74    C     0.77408   0.73111   0.25154   0.00000  Uiso   1.00
C75    C     0.82399   0.73865   0.71704   0.00000  Uiso   1.00
C76    C     0.25752   0.82607   0.26461   0.00000  Uiso   1.00
C77    C     0.71280   0.20337   0.69616   0.00000  Uiso   1.00
C78    C     0.79672   0.71249   0.30555   0.00000  Uiso   1.00
C79    C     0.17317   0.25673   0.75291   0.00000  Uiso   1.00
C80    C     0.70907   0.20820   0.30334   0.00000  Uiso   1.00
C81    C     0.25587   0.82636   0.75231   0.00000  Uiso   1.00
C82    C     0.82528   0.25609   0.76022   0.00000  Uiso   1.00
C83    C     0.21199   0.70565   0.30429   0.00000  Uiso   1.00
C84    C     0.74529   0.83049   0.74935   0.00000  Uiso   1.00
C85    C     0.22891   0.27151   0.75840   0.00000  Uiso   1.00
C86    C     0.25929   0.17793   0.23062   0.00000  Uiso   1.00
C87    C     0.20582   0.71093   0.69575   0.00000  Uiso   1.00
C88    C     0.82484   0.25691   0.24785   0.00000  Uiso   1.00
C89    C     0.26406   0.18025   0.71706   0.00000  Uiso   1.00
C90    C     0.74539   0.82871   0.25013   0.00000  Uiso   1.00
C91    C     0.68031   0.76419   0.78312   0.00000  Uiso   1.00
C92    C     0.33092   0.24433   0.22634   0.00000  Uiso   1.00
C93    C     0.75594   0.32537   0.73985   0.00000  Uiso   1.00
C94    C     0.20512   0.71260   0.19609   0.00000  Uiso   1.00
C95    C     0.33054   0.24520   0.75045   0.00000  Uiso   1.00
C96    C     0.72675   0.23041   0.24889   0.00000  Uiso   1.00
C97    C     0.67604   0.75722   0.25445   0.00000  Uiso   1.00
C98    C     0.21095   0.70578   0.80424   0.00000  Uiso   1.00
C99    C     0.75500   0.32819   0.24916   0.00000  Uiso   1.00
C100   C     0.32543   0.75796   0.23571   0.00000  Uiso   1.00
C101   C     0.70324   0.21288   0.80391   0.00000  Uiso   1.00
C102   C     0.24654   0.33298   0.25488   0.00000  Uiso   1.00
C103   C     0.75663   0.67321   0.74717   0.00000  Uiso   1.00
C104   C     0.70469   0.21174   0.19476   0.00000  Uiso   1.00
C105   C     0.32642   0.75594   0.74774   0.00000  Uiso   1.00
C106   C     0.79100   0.70875   0.19703   0.00000  Uiso   1.00
C107   C     0.27102   0.77102   0.75002   0.00000  Uiso   1.00
C108   C     0.23878   0.32401   0.78275   0.00000  Uiso   1.00
C109   C     0.13798   0.30068   0.26950   0.00000  Uiso   1.00
C110   C     0.86559   0.69952   0.72459   0.00000  Uiso   1.00
C111   C     0.29823   0.86634   0.26522   0.00000  Uiso   1.00
C112   C     0.67236   0.16291   0.69607   0.00000  Uiso   1.00
C113   C     0.83646   0.67121   0.30517   0.00000  Uiso   1.00
C114   C     0.13356   0.29741   0.74448   0.00000  Uiso   1.00
C115   C     0.66941   0.16690   0.30377   0.00000  Uiso   1.00
C116   C     0.29625   0.86697   0.75214   0.00000  Uiso   1.00
C117   C     0.86593   0.29640   0.76027   0.00000  Uiso   1.00
C118   C     0.77054   0.27067   0.75004   0.00000  Uiso   1.00
C119   C     0.17112   0.66553   0.30447   0.00000  Uiso   1.00
C120   C     0.70340   0.86915   0.74190   0.00000  Uiso   1.00
C121   C     0.29765   0.13598   0.23859   0.00000  Uiso   1.00
C122   C     0.16522   0.67055   0.69565   0.00000  Uiso   1.00
C123   C     0.86586   0.29684   0.24832   0.00000  Uiso   1.00
C124   C     0.30197   0.13758   0.72405   0.00000  Uiso   1.00
C125   C     0.70429   0.86872   0.25014   0.00000  Uiso   1.00
C126   C     0.63762   0.80210   0.77619   0.00000  Uiso   1.00
C127   C     0.37043   0.20330   0.23507   0.00000  Uiso   1.00
C128   C     0.79629   0.36598   0.73976   0.00000  Uiso   1.00
Cl1    Cl    0.17083   0.20552   0.32267   0.00000  Uiso   1.00
Cl2    Cl    0.24257   0.72636   0.37214   0.00000  Uiso   1.00
Cl3    Cl    0.81042   0.85509   0.77131   0.00000  Uiso   1.00
Cl4    Cl    0.19607   0.16178   0.19590   0.00000  Uiso   1.00
Cl5    Cl    0.22819   0.73990   0.62775   0.00000  Uiso   1.00
Cl6    Cl    0.84266   0.18676   0.24681   0.00000  Uiso   1.00
Cl7    Cl    0.21453   0.17394   0.65960   0.00000  Uiso   1.00
Cl8    Cl    0.81506   0.84809   0.24783   0.00000  Uiso   1.00
Cl9    Cl    0.67410   0.71480   0.84070   0.00000  Uiso   1.00
Cl10   Cl    0.34846   0.29888   0.17797   0.00000  Uiso   1.00
Cl11   Cl    0.68649   0.34297   0.72762   0.00000  Uiso   1.00
Cl12   Cl    0.83275   0.78784   0.65975   0.00000  Uiso   1.00
Cl13   Cl    0.22572   0.74338   0.12831   0.00000  Uiso   1.00
Cl14   Cl    0.35520   0.31019   0.72821   0.00000  Uiso   1.00
Cl15   Cl    0.65875   0.68701   0.25739   0.00000  Uiso   1.00
Cl16   Cl    0.23990   0.72816   0.87226   0.00000  Uiso   1.00
Cl17   Cl    0.68519   0.34741   0.24969   0.00000  Uiso   1.00
Cl18   Cl    0.34272   0.68955   0.21859   0.00000  Uiso   1.00
Cl19   Cl    0.72253   0.24485   0.87135   0.00000  Uiso   1.00
Cl20   Cl    0.30764   0.35681   0.28846   0.00000  Uiso   1.00
Cl21   Cl    0.69088   0.65041   0.72488   0.00000  Uiso   1.00
Cl22   Cl    0.72728   0.23998   0.12648   0.00000  Uiso   1.00
Cl23   Cl    0.18913   0.84357   0.28179   0.00000  Uiso   1.00
Cl24   Cl    0.34491   0.68602   0.74498   0.00000  Uiso   1.00
Cl25   Cl    0.76204   0.73247   0.12935   0.00000  Uiso   1.00
Cl26   Cl    0.28816   0.33284   0.83988   0.00000  Uiso   1.00
Cl27   Cl    0.07111   0.28207   0.29114   0.00000  Uiso   1.00
Cl28   Cl    0.93273   0.71404   0.69996   0.00000  Uiso   1.00
Cl29   Cl    0.28153   0.93350   0.28746   0.00000  Uiso   1.00
Cl30   Cl    0.65487   0.13029   0.62837   0.00000  Uiso   1.00
Cl31   Cl    0.86657   0.65008   0.37332   0.00000  Uiso   1.00
Cl32   Cl    0.06642   0.27843   0.72408   0.00000  Uiso   1.00
Cl33   Cl    0.64984   0.13735   0.37257   0.00000  Uiso   1.00
Cl34   Cl    0.74477   0.22272   0.62872   0.00000  Uiso   1.00
Cl35   Cl    0.27574   0.93635   0.75190   0.00000  Uiso   1.00
Cl36   Cl    0.93455   0.27561   0.77104   0.00000  Uiso   1.00
Cl37   Cl    0.14788   0.63970   0.37369   0.00000  Uiso   1.00
Cl38   Cl    0.72033   0.93731   0.72282   0.00000  Uiso   1.00
Cl39   Cl    0.27438   0.06763   0.24034   0.00000  Uiso   1.00
Cl40   Cl    0.13506   0.65089   0.62720   0.00000  Uiso   1.00
Cl41   Cl    0.93503   0.27573   0.25037   0.00000  Uiso   1.00
Cl42   Cl    0.28656   0.07188   0.69610   0.00000  Uiso   1.00
Cl43   Cl    0.72344   0.93850   0.25146   0.00000  Uiso   1.00
Cl44   Cl    0.57193   0.78684   0.80441   0.00000  Uiso   1.00
Cl45   Cl    0.77509   0.74104   0.37386   0.00000  Uiso   1.00
Cl46   Cl    0.44050   0.21942   0.22605   0.00000  Uiso   1.00
Cl47   Cl    0.77549   0.43455   0.72901   0.00000  Uiso   1.00
Cl48   Cl    0.13985   0.64801   0.12647   0.00000  Uiso   1.00
Cl49   Cl    0.43747   0.22024   0.77687   0.00000  Uiso   1.00
Cl50   Cl    0.56583   0.77546   0.25442   0.00000  Uiso   1.00
Cl51   Cl    0.15096   0.63498   0.87278   0.00000  Uiso   1.00
Cl52   Cl    0.77644   0.43807   0.24625   0.00000  Uiso   1.00
Cl53   Cl    0.43273   0.78169   0.21182   0.00000  Uiso   1.00
Cl54   Cl    0.63025   0.15478   0.87169   0.00000  Uiso   1.00
Cl55   Cl    0.22156   0.44065   0.23456   0.00000  Uiso   1.00
Cl56   Cl    0.15028   0.19113   0.77545   0.00000  Uiso   1.00
Cl57   Cl    0.77830   0.56652   0.77598   0.00000  Uiso   1.00
Cl58   Cl    0.63534   0.14977   0.12660   0.00000  Uiso   1.00
Cl59   Cl    0.43649   0.77590   0.74822   0.00000  Uiso   1.00
Cl60   Cl    0.84924   0.63745   0.12770   0.00000  Uiso   1.00
Cl61   Cl    0.21429   0.43271   0.79964   0.00000  Uiso   1.00
Cl62   Cl    0.73717   0.23195   0.37122   0.00000  Uiso   1.00
Cl63   Cl    0.18587   0.84476   0.75506   0.00000  Uiso   1.00
Cl64   Cl    0.84291   0.18670   0.77248   0.00000  Uiso   1.00
O1     O     0.00000   0.50000   0.25000   0.00000  Uiso   1.00
O2     O     0.00000   0.45454   0.88202   0.00000  Uiso   1.00
O3     O     0.54546  -0.00000   0.11798   0.00000  Uiso   1.00
O4     O     0.45454  -0.00000   0.88202   0.00000  Uiso   1.00
O5     O     0.50000   0.95454   0.61798   0.00000  Uiso   1.00
O6     O     0.50000   0.04546   0.38202   0.00000  Uiso   1.00
O7     O     0.95454   0.50000   0.61798   0.00000  Uiso   1.00
O8     O     0.04546   0.50000   0.38202   0.00000  Uiso   1.00
O9     O     0.50000   0.04546   0.61798   0.00000  Uiso   1.00
O10    O     0.50000   0.95454   0.38202   0.00000  Uiso   1.00
O11    O     0.04546   0.50000   0.61798   0.00000  Uiso   1.00
O12    O     0.00000   0.50000   0.75000   0.00000  Uiso   1.00
O13    O     0.95454   0.50000   0.38202   0.00000  Uiso   1.00
O14    O     0.06399   0.60947   0.21539   0.00000  Uiso   1.00
O15    O     0.93601   0.39053   0.78461   0.00000  Uiso   1.00
O16    O     0.60947   0.93601   0.21539   0.00000  Uiso   1.00
O17    O     0.39053   0.06399   0.78461   0.00000  Uiso   1.00
O18    O     0.93601   0.39053   0.21539   0.00000  Uiso   1.00
O19    O     0.06399   0.60947   0.78461   0.00000  Uiso   1.00
O20    O     0.39053   0.06399   0.21539   0.00000  Uiso   1.00
O21    O     0.60947   0.93601   0.78461   0.00000  Uiso   1.00
O22    O     0.93601   0.60947   0.78461   0.00000  Uiso   1.00
O23    O     0.50000  -0.00000   0.25000   0.00000  Uiso   1.00
O24    O     0.06399   0.39053   0.21539   0.00000  Uiso   1.00
O25    O     0.39053   0.93601   0.78461   0.00000  Uiso   1.00
O26    O     0.60947   0.06399   0.21539   0.00000  Uiso   1.00
O27    O     0.06399   0.39053   0.78461   0.00000  Uiso   1.00
O28    O     0.93601   0.60947   0.21539   0.00000  Uiso   1.00
O29    O     0.60947   0.06399   0.78461   0.00000  Uiso   1.00
O30    O     0.39053   0.93601   0.21539   0.00000  Uiso   1.00
O31    O     0.56399   0.10947   0.71539   0.00000  Uiso   1.00
O32    O     0.43601   0.89053   0.28461   0.00000  Uiso   1.00
O33    O     0.10947   0.43601   0.71539   0.00000  Uiso   1.00
O34    O     0.50000  -0.00000   0.75000   0.00000  Uiso   1.00
O35    O     0.89053   0.56399   0.28461   0.00000  Uiso   1.00
O36    O     0.43601   0.89053   0.71539   0.00000  Uiso   1.00
O37    O     0.56399   0.10947   0.28461   0.00000  Uiso   1.00
O38    O     0.89053   0.56399   0.71539   0.00000  Uiso   1.00
O39    O     0.10947   0.43601   0.28461   0.00000  Uiso   1.00
O40    O     0.43601   0.10947   0.28461   0.00000  Uiso   1.00
O41    O     0.56399   0.89053   0.71539   0.00000  Uiso   1.00
O42    O     0.89053   0.43601   0.28461   0.00000  Uiso   1.00
O43    O     0.10947   0.56399   0.71539   0.00000  Uiso   1.00
O44    O     0.56399   0.89053   0.28461   0.00000  Uiso   1.00
O45    O    -0.00000   0.45454   0.11798   0.00000  Uiso   1.00
O46    O     0.43601   0.10947   0.71539   0.00000  Uiso   1.00
O47    O     0.10947   0.56399   0.28461   0.00000  Uiso   1.00
O48    O     0.89053   0.43601   0.71539   0.00000  Uiso   1.00
O49    O     0.00000   0.54546   0.88202   0.00000  Uiso   1.00
O50    O     0.45454  -0.00000   0.11798   0.00000  Uiso   1.00
O51    O     0.54546  -0.00000   0.88202   0.00000  Uiso   1.00
O52    O     0.00000   0.54546   0.11798   0.00000  Uiso   1.00
Zn1    Zn    0.06497   0.50000   0.29947   0.00000  Uiso   1.00
Zn2    Zn    0.43503  -0.00000   0.20053   0.00000  Uiso   1.00
Zn3    Zn   -0.00000   0.43503   0.79947   0.00000  Uiso   1.00
Zn4    Zn    0.00000   0.56497   0.20053   0.00000  Uiso   1.00
Zn5    Zn    0.43503  -0.00000   0.79947   0.00000  Uiso   1.00
Zn6    Zn    0.56497  -0.00000   0.20053   0.00000  Uiso   1.00
Zn7    Zn   -0.00000   0.56497   0.79947   0.00000  Uiso   1.00
Zn8    Zn    0.00000   0.43503   0.20053   0.00000  Uiso   1.00
Zn9    Zn    0.93503   0.50000   0.70053   0.00000  Uiso   1.00
Zn10   Zn    0.50000   0.93503   0.29947   0.00000  Uiso   1.00
Zn11   Zn    0.50000   0.06497   0.70053   0.00000  Uiso   1.00
Zn12   Zn    0.93503   0.50000   0.29947   0.00000  Uiso   1.00
Zn13   Zn    0.06497   0.50000   0.70053   0.00000  Uiso   1.00
Zn14   Zn    0.50000   0.06497   0.29947   0.00000  Uiso   1.00
Zn15   Zn    0.50000   0.93503   0.70053   0.00000  Uiso   1.00
Zn16   Zn    0.56497  -0.00000   0.79947   0.00000  Uiso   1.00
loop_
_geom_bond_atom_site_label_1
_geom_bond_atom_site_label_2
_geom_bond_distance
_geom_bond_site_symmetry_2
_ccdc_geom_bond_type
C1     C24     1.516   .     S
C1     C73     1.418   .     A
C1     C102    1.413   .     A
C2     C83     1.405   .     A
C2     C94     1.405   .     A
C2     C52     1.472   .     S
C3     C27     1.414   .     A
C3     C94     1.401   .     A
C3     Cl48    1.771   .     S
C4     Cl49    1.770   .     S
C4     C95     1.402   .     A
C4     C32     1.408   .     A
C5     C33     1.413   .     A
C5     C97     1.399   .     A
C5     Cl50    1.766   .     S
C6     Cl51    1.770   .     S
C6     C98     1.401   .     A
C6     C30     1.411   .     A
C7     C99     1.402   .     A
C7     C31     1.413   .     A
C7     Cl52    1.770   .     S
C8     Cl53    1.765   .     S
C8     C19     1.407   .     A
C8     C100    1.400   .     A
C9     Cl54    1.770   .     S
C9     C20     1.409   .     A
C9     C101    1.400   .     A
C10    C17     1.410   .     A
C10    Cl55    1.770   .     S
C10    C102    1.400   .     A
C11    C18     1.405   .     A
C11    C103    1.399   .     A
C11    Cl57    1.765   .     S
C12    C104    1.401   .     A
C12    C23     1.411   .     A
C12    Cl58    1.770   .     S
C13    C41     1.518   .     S
C13    C84     1.416   .     A
C13    C91     1.418   .     A
C14    C105    1.401   .     A
C14    Cl59    1.769   .     S
C14    C25     1.414   .     A
C15    C106    1.400   .     A
C15    Cl60    1.770   .     S
C15    C21     1.411   .     A
C16    C22     1.406   .     A
C16    Cl61    1.769   .     S
C16    C108    1.405   .     A
C17    C66     1.466   .     S
C17    C109    1.405   .     A
C18    C65     1.465   .     S
C18    C110    1.406   .     A
C19    C72     1.465   .     S
C19    C111    1.408   .     A
C20    C112    1.409   .     A
C20    C71     1.462   .     S
C21    C113    1.411   .     A
C21    C70     1.465   .     S
C22    C114    1.405   .     A
C22    C69     1.465   .     S
C23    C68     1.468   .     S
C23    C115    1.411   .     A
C24    C92     1.415   .     A
C24    C86     1.413   .     A
C25    C116    1.414   .     A
C25    C67     1.474   .     S
C26    C117    1.417   .     A
C26    C128    1.417   .     A
C26    C57     1.480   .     S
C27    C119    1.414   .     A
C27    C56     1.473   .     S
C28    C126    1.404   .     A
C28    C120    1.408   .     A
C28    C64     1.463   .     S
C29    C121    1.411   .     A
C29    C62     1.471   .     S
C29    C127    1.409   .     A
C30    C122    1.411   .     A
C30    C61     1.467   .     S
C31    C123    1.413   .     A
C31    C60     1.473   .     S
C32    C124    1.404   .     A
C32    C59     1.463   .     S
C33    C58     1.472   .     S
C33    C125    1.414   .     A
C34    C107    1.471   .     S
C34    C98     1.405   .     A
C34    C87     1.405   .     A
C35    C96     1.471   .     S
C35    C99     1.405   .     A
C35    C88     1.404   .     A
C36    C89     1.418   .     A
C36    C85     1.518   .     S
C36    C95     1.415   .     A
C37    C74     1.468   .     S
C37    C97     1.403   .     A
C37    C90     1.404   .     A
C38    C55     1.421   .     S
C38    C39     1.198   1_455 S
C39    C54     1.421   .     S
C39    C38     1.198   1_655 S
C40    C53     1.421   .     S
C40    C42     1.198   1_565 S
C41    C75     1.418   .     A
C41    C103    1.415   .     A
C42    C51     1.421   .     S
C42    C40     1.198   1_545 S
C43    C50     1.421   .     S
C43    C44     1.198   1_556 S
C44    C49     1.421   .     S
C44    C43     1.198   1_554 S
C45    C48     1.421   .     S
C45    C46     1.198   1_556 S
C46    C47     1.421   .     S
C46    C45     1.198   1_554 S
C47    O52     1.277   .     A
C47    O45     1.276   .     S
C48    O2      1.277   .     A
C48    O49     1.276   .     A
C49    O50     1.277   .     A
C49    O3      1.275   .     A
C50    O4      1.275   .     A
C50    O51     1.277   .     A
C51    O9      1.277   .     A
C51    O5      1.276   1_545 S
C52    C100    1.406   .     A
C52    C76     1.406   .     A
C53    O10     1.277   .     A
C53    O6      1.276   1_565 S
C54    O7      1.277   .     A
C54    O11     1.275   1_655 S
C55    O8      1.277   .     A
C55    O13     1.275   1_455 S
C56    O47     1.275   .     A
C56    O14     1.275   .     A
C57    O15     1.277   .     A
C57    O48     1.277   .     A
C58    O44     1.278   .     A
C58    O16     1.277   .     A
C59    O46     1.271   .     A
C59    O17     1.279   .     A
C60    O42     1.279   .     A
C60    O18     1.279   .     A
C61    O19     1.277   .     A
C61    O43     1.277   .     A
C62    O40     1.281   .     A
C62    O20     1.273   .     A
C63    C101    1.405   .     A
C63    C118    1.468   .     S
C63    C77     1.405   .     A
C64    O21     1.271   .     A
C64    O41     1.279   .     A
C65    O38     1.273   .     A
C65    O22     1.278   .     A
C66    O39     1.270   .     A
C66    O24     1.281   .     A
C67    O25     1.279   .     A
C67    O36     1.279   .     A
C68    O26     1.278   .     A
C68    O37     1.277   .     A
C69    O33     1.278   .     A
C69    O27     1.273   .     A
C70    O35     1.276   .     A
C70    O28     1.275   .     A
C71    O29     1.272   .     A
C71    O31     1.272   .     A
C72    O32     1.273   .     A
C72    O30     1.273   .     A
C73    Cl1     1.773   .     S
C73    C109    1.403   .     A
C74    C106    1.405   .     A
C74    C78     1.405   .     A
C75    Cl12    1.772   .     S
C75    C110    1.405   .     A
C76    Cl23    1.769   .     S
C76    C111    1.401   .     A
C77    C112    1.400   .     A
C77    Cl34    1.769   .     S
C78    Cl45    1.769   .     S
C78    C113    1.400   .     A
C79    Cl56    1.773   .     S
C79    C114    1.399   .     A
C79    C85     1.415   .     A
C80    C96     1.405   .     A
C80    C115    1.401   .     A
C80    Cl62    1.769   .     S
C81    C107    1.404   .     A
C81    Cl63    1.770   .     S
C81    C116    1.401   .     A
C82    C117    1.401   .     A
C82    Cl64    1.771   .     S
C82    C118    1.402   .     A
C83    C119    1.401   .     A
C83    Cl2     1.770   .     S
C84    C120    1.402   .     A
C84    Cl3     1.771   .     S
C85    C108    1.418   .     A
C86    C121    1.399   .     A
C86    Cl4     1.774   .     S
C87    Cl5     1.769   .     S
C87    C122    1.401   .     A
C88    C123    1.401   .     A
C88    Cl6     1.770   .     S
C89    Cl7     1.773   .     S
C89    C124    1.403   .     A
C90    Cl8     1.769   .     S
C90    C125    1.401   .     A
C91    C126    1.403   .     A
C91    Cl9     1.773   .     S
C92    Cl10    1.771   .     S
C92    C127    1.404   .     A
C93    Cl11    1.771   .     S
C93    C118    1.402   .     A
C93    C128    1.401   .     A
C94    Cl13    1.770   .     S
C95    Cl14    1.772   .     S
C96    C104    1.405   .     A
C97    Cl15    1.770   .     S
C98    Cl16    1.769   .     S
C99    Cl17    1.769   .     S
C100   Cl18    1.769   .     S
C101   Cl19    1.769   .     S
C102   Cl20    1.771   .     S
C103   Cl21    1.772   .     S
C104   Cl22    1.769   .     S
C105   C107    1.404   .     A
C105   Cl24    1.770   .     S
C106   Cl25    1.769   .     S
C108   Cl26    1.772   .     S
C109   Cl27    1.766   .     S
C110   Cl28    1.769   .     S
C111   Cl29    1.766   .     S
C112   Cl30    1.770   .     S
C113   Cl31    1.770   .     S
C114   Cl32    1.765   .     S
C115   Cl33    1.770   .     S
C116   Cl35    1.769   .     S
C117   Cl36    1.767   .     S
C119   Cl37    1.771   .     S
C120   Cl38    1.770   .     S
C121   Cl39    1.767   .     S
C122   Cl40    1.770   .     S
C123   Cl41    1.767   .     S
C124   Cl42    1.768   .     S
C125   Cl43    1.771   .     S
C126   Cl44    1.768   .     S
C127   Cl46    1.770   .     S
C128   Cl47    1.767   .     S
O1     Zn8     1.942   .     S
O1     Zn4     1.935   .     S
O1     Zn1     1.934   .     S
O1     Zn12    1.940   1_455 S
O2     Zn3     1.915   .     S
O3     Zn6     1.911   .     S
O4     Zn5     1.911   .     S
O5     Zn15    1.911   .     S
O5     C51     1.276   1_565 S
O6     Zn14    1.911   .     S
O6     C53     1.276   1_545 S
O7     Zn9     1.915   .     S
O8     Zn1     1.915   .     S
O9     Zn11    1.915   .     S
O10    Zn10    1.915   .     S
O11    Zn13    1.911   .     S
O11    C54     1.275   1_455 S
O12    Zn13    1.940   .     S
O12    Zn3     1.935   .     S
O12    Zn7     1.942   .     S
O12    Zn9     1.934   1_455 S
O13    Zn12    1.911   .     S
O13    C55     1.275   1_655 S
O14    Zn4     1.935   .     S
O15    Zn3     1.935   1_655 S
O16    Zn6     1.932   1_565 S
O17    Zn5     1.932   .     S
O18    Zn8     1.936   1_655 S
O19    Zn7     1.936   .     S
O20    Zn2     1.935   .     S
O21    Zn16    1.935   1_565 S
O22    Zn7     1.931   1_655 S
O23    Zn2     1.934   .     S
O23    Zn6     1.940   .     S
O23    Zn14    1.942   .     S
O23    Zn10    1.935   1_545 S
O24    Zn8     1.931   .     S
O25    Zn5     1.936   1_565 S
O26    Zn6     1.936   .     S
O27    Zn3     1.934   .     S
O28    Zn4     1.934   1_655 S
O29    Zn16    1.936   .     S
O30    Zn2     1.936   1_565 S
O31    Zn11    1.935   .     S
O32    Zn10    1.935   .     S
O33    Zn13    1.932   .     S
O34    Zn5     1.940   .     S
O34    Zn16    1.934   .     S
O34    Zn11    1.935   .     S
O34    Zn15    1.942   1_545 S
O35    Zn12    1.932   .     S
O36    Zn15    1.936   .     S
O37    Zn14    1.936   .     S
O38    Zn9     1.935   .     S
O39    Zn1     1.935   .     S
O40    Zn14    1.931   .     S
O41    Zn15    1.931   .     S
O42    Zn12    1.936   .     S
O43    Zn13    1.936   .     S
O44    Zn10    1.934   .     S
O45    Zn8     1.911   .     S
O46    Zn11    1.934   .     S
O47    Zn1     1.936   .     S
O48    Zn9     1.936   .     S
O49    Zn7     1.911   .     S
O50    Zn2     1.915   .     S
O51    Zn16    1.915   .     S
O52    Zn4     1.915   .     S
Zn2    O30     1.936   1_545 S
Zn3    O15     1.935   1_455 S
Zn4    O28     1.934   1_455 S
Zn5    O25     1.936   1_545 S
Zn6    O16     1.932   1_545 S
Zn7    O22     1.931   1_455 S
Zn8    O18     1.936   1_455 S
Zn9    O12     1.934   1_655 S
Zn10   O23     1.935   1_565 S
Zn12   O1      1.940   1_655 S
Zn15   O34     1.942   1_565 S
Zn16   O21     1.935   1_545 S
