data_str_m1_o2_o5_pcu_sym.7
_audit_creation_date              2020-01-03
_audit_creation_method            'Materials Studio'
_symmetry_space_group_name_H-M    'P1'
_symmetry_Int_Tables_number       1
_symmetry_cell_setting            triclinic
loop_
_symmetry_equiv_pos_as_xyz
  x,y,z
_cell_length_a                    24.4204
_cell_length_b                    24.4204
_cell_length_c                    22.4767
_cell_angle_alpha                 90.0000
_cell_angle_beta                  90.0000
_cell_angle_gamma                 90.0000
loop_
_atom_site_label
_atom_site_type_symbol
_atom_site_fract_x
_atom_site_fract_y
_atom_site_fract_z
_atom_site_U_iso_or_equiv
_atom_site_adp_type
_atom_site_occupancy
C1     C     0.22873   0.27127   0.25000   0.00000  Uiso   1.00
C2     C     0.22873   0.72873   0.25000   0.00000  Uiso   1.00
C3     C     0.13448   0.70169   0.26815   0.00000  Uiso   1.00
C4     C     0.31884   0.15495   0.69911   0.00000  Uiso   1.00
C5     C     0.68115   0.84505   0.30089   0.00000  Uiso   1.00
C6     C     0.13449   0.70168   0.73184   0.00000  Uiso   1.00
C7     C     0.79831   0.36552   0.23185   0.00000  Uiso   1.00
C8     C     0.31884   0.84505   0.30088   0.00000  Uiso   1.00
C9     C     0.68115   0.15495   0.69911   0.00000  Uiso   1.00
C10    C     0.13448   0.29831   0.26814   0.00000  Uiso   1.00
C11    C     0.79831   0.63449   0.76816   0.00000  Uiso   1.00
C12    C     0.65495   0.18116   0.19911   0.00000  Uiso   1.00
C13    C     0.72870   0.77130   0.75000   0.00000  Uiso   1.00
C14    C     0.31884   0.84505   0.69911   0.00000  Uiso   1.00
C15    C     0.86551   0.70169   0.26816   0.00000  Uiso   1.00
C16    C     0.13448   0.29831   0.73185   0.00000  Uiso   1.00
C17    C     0.14743   0.35257   0.25000   0.00000  Uiso   1.00
C18    C     0.85257   0.64743   0.75000   0.00000  Uiso   1.00
C19    C     0.35259   0.85259   0.25000   0.00000  Uiso   1.00
C20    C     0.64741   0.14741   0.75000   0.00000  Uiso   1.00
C21    C     0.85257   0.64743   0.25000   0.00000  Uiso   1.00
C22    C     0.14743   0.35257   0.75000   0.00000  Uiso   1.00
C23    C     0.64741   0.14741   0.25000   0.00000  Uiso   1.00
C24    C     0.27130   0.22870   0.25000   0.00000  Uiso   1.00
C25    C     0.35259   0.85259   0.75000   0.00000  Uiso   1.00
C26    C     0.85257   0.35257   0.75000   0.00000  Uiso   1.00
C27    C     0.14743   0.64743   0.25000   0.00000  Uiso   1.00
C28    C     0.64741   0.85259   0.75000   0.00000  Uiso   1.00
C29    C     0.35259   0.14741   0.25000   0.00000  Uiso   1.00
C30    C     0.14743   0.64743   0.75000   0.00000  Uiso   1.00
C31    C     0.85257   0.35257   0.25000   0.00000  Uiso   1.00
C32    C     0.35259   0.14741   0.75000   0.00000  Uiso   1.00
C33    C     0.64741   0.85259   0.25000   0.00000  Uiso   1.00
C34    C     0.22873   0.72873   0.75000   0.00000  Uiso   1.00
C35    C     0.77127   0.27127   0.25000   0.00000  Uiso   1.00
C36    C     0.27130   0.22870   0.75000   0.00000  Uiso   1.00
C37    C     0.72870   0.77130   0.25000   0.00000  Uiso   1.00
C38    C     0.00000   0.50000   0.47333   0.00000  Uiso   1.00
C39    C     0.00000   0.50000   0.52667   0.00000  Uiso   1.00
C40    C     0.50000   0.00000   0.47333   0.00000  Uiso   1.00
C41    C     0.77127   0.72873   0.75000   0.00000  Uiso   1.00
C42    C     0.50000   0.00000   0.52667   0.00000  Uiso   1.00
C43    C     0.50000   0.00000   0.97333   0.00000  Uiso   1.00
C44    C     0.50000   0.00000   0.02667   0.00000  Uiso   1.00
C45    C     0.00000   0.50000   0.97333   0.00000  Uiso   1.00
C46    C     0.00000   0.50000   0.02667   0.00000  Uiso   1.00
C47    C     0.00000   0.50000   0.08999   0.00000  Uiso   1.00
C48    C     0.00000   0.50000   0.91001   0.00000  Uiso   1.00
C49    C     0.50000   0.00000   0.08999   0.00000  Uiso   1.00
C50    C     0.50000   0.00000   0.91001   0.00000  Uiso   1.00
C51    C     0.50000   0.00000   0.58999   0.00000  Uiso   1.00
C52    C     0.27130   0.77130   0.25000   0.00000  Uiso   1.00
C53    C     0.50000   0.00000   0.41001   0.00000  Uiso   1.00
C54    C     0.00000   0.50000   0.58999   0.00000  Uiso   1.00
C55    C     0.00000   0.50000   0.41001   0.00000  Uiso   1.00
C56    C     0.10508   0.60508   0.25000   0.00000  Uiso   1.00
C57    C     0.89492   0.39492   0.75000   0.00000  Uiso   1.00
C58    C     0.60507   0.89493   0.25000   0.00000  Uiso   1.00
C59    C     0.39493   0.10507   0.75000   0.00000  Uiso   1.00
C60    C     0.89492   0.39492   0.25000   0.00000  Uiso   1.00
C61    C     0.10508   0.60508   0.75000   0.00000  Uiso   1.00
C62    C     0.39493   0.10507   0.25000   0.00000  Uiso   1.00
C63    C     0.72870   0.22870   0.75000   0.00000  Uiso   1.00
C64    C     0.60507   0.89493   0.75000   0.00000  Uiso   1.00
C65    C     0.89492   0.60508   0.75000   0.00000  Uiso   1.00
C66    C     0.10508   0.39492   0.25000   0.00000  Uiso   1.00
C67    C     0.39493   0.89493   0.75000   0.00000  Uiso   1.00
C68    C     0.60507   0.10507   0.25000   0.00000  Uiso   1.00
C69    C     0.10508   0.39492   0.75000   0.00000  Uiso   1.00
C70    C     0.89492   0.60508   0.25000   0.00000  Uiso   1.00
C71    C     0.60507   0.10507   0.75000   0.00000  Uiso   1.00
C72    C     0.39493   0.89493   0.25000   0.00000  Uiso   1.00
C73    C     0.24155   0.32468   0.23248   0.00000  Uiso   1.00
C74    C     0.77127   0.72873   0.25000   0.00000  Uiso   1.00
C75    C     0.82468   0.74155   0.73246   0.00000  Uiso   1.00
C76    C     0.30434   0.77885   0.19987   0.00000  Uiso   1.00
C77    C     0.69567   0.22114   0.80013   0.00000  Uiso   1.00
C78    C     0.75845   0.67532   0.23246   0.00000  Uiso   1.00
C79    C     0.24155   0.32468   0.76753   0.00000  Uiso   1.00
C80    C     0.72114   0.19567   0.30013   0.00000  Uiso   1.00
C81    C     0.30433   0.77886   0.80013   0.00000  Uiso   1.00
C82    C     0.75845   0.32468   0.76754   0.00000  Uiso   1.00
C83    C     0.24155   0.67532   0.23247   0.00000  Uiso   1.00
C84    C     0.72114   0.80433   0.69987   0.00000  Uiso   1.00
C85    C     0.22873   0.27127   0.75000   0.00000  Uiso   1.00
C86    C     0.30434   0.22116   0.19988   0.00000  Uiso   1.00
C87    C     0.24155   0.67532   0.76754   0.00000  Uiso   1.00
C88    C     0.82468   0.25845   0.26754   0.00000  Uiso   1.00
C89    C     0.30434   0.22115   0.80013   0.00000  Uiso   1.00
C90    C     0.69567   0.77886   0.19987   0.00000  Uiso   1.00
C91    C     0.69567   0.77886   0.80013   0.00000  Uiso   1.00
C92    C     0.27884   0.19566   0.30012   0.00000  Uiso   1.00
C93    C     0.82468   0.25845   0.73246   0.00000  Uiso   1.00
C94    C     0.17532   0.74155   0.26753   0.00000  Uiso   1.00
C95    C     0.27885   0.19566   0.69987   0.00000  Uiso   1.00
C96    C     0.72870   0.22870   0.25000   0.00000  Uiso   1.00
C97    C     0.72114   0.80433   0.30013   0.00000  Uiso   1.00
C98    C     0.17532   0.74155   0.73246   0.00000  Uiso   1.00
C99    C     0.75845   0.32468   0.23246   0.00000  Uiso   1.00
C100   C     0.27885   0.80434   0.30013   0.00000  Uiso   1.00
C101   C     0.72114   0.19567   0.69987   0.00000  Uiso   1.00
C102   C     0.17532   0.25845   0.26752   0.00000  Uiso   1.00
C103   C     0.75845   0.67532   0.76754   0.00000  Uiso   1.00
C104   C     0.69567   0.22115   0.19987   0.00000  Uiso   1.00
C105   C     0.27885   0.80434   0.69987   0.00000  Uiso   1.00
C106   C     0.82468   0.74155   0.26754   0.00000  Uiso   1.00
C107   C     0.27130   0.77130   0.75000   0.00000  Uiso   1.00
C108   C     0.17532   0.25845   0.73247   0.00000  Uiso   1.00
C109   C     0.20169   0.36552   0.23186   0.00000  Uiso   1.00
C110   C     0.86551   0.70168   0.73184   0.00000  Uiso   1.00
C111   C     0.34505   0.81884   0.19912   0.00000  Uiso   1.00
C112   C     0.65495   0.18115   0.80089   0.00000  Uiso   1.00
C113   C     0.79831   0.63449   0.23184   0.00000  Uiso   1.00
C114   C     0.20169   0.36552   0.76815   0.00000  Uiso   1.00
C115   C     0.68115   0.15495   0.30089   0.00000  Uiso   1.00
C116   C     0.34505   0.81884   0.80089   0.00000  Uiso   1.00
C117   C     0.79831   0.36551   0.76816   0.00000  Uiso   1.00
C118   C     0.77127   0.27127   0.75000   0.00000  Uiso   1.00
C119   C     0.20169   0.63448   0.23185   0.00000  Uiso   1.00
C120   C     0.68115   0.84505   0.69911   0.00000  Uiso   1.00
C121   C     0.34506   0.18117   0.19912   0.00000  Uiso   1.00
C122   C     0.20168   0.63449   0.76816   0.00000  Uiso   1.00
C123   C     0.86551   0.29832   0.26816   0.00000  Uiso   1.00
C124   C     0.34505   0.18116   0.80089   0.00000  Uiso   1.00
C125   C     0.65495   0.81885   0.19911   0.00000  Uiso   1.00
C126   C     0.65495   0.81885   0.80089   0.00000  Uiso   1.00
C127   C     0.31883   0.15494   0.30088   0.00000  Uiso   1.00
C128   C     0.86551   0.29832   0.73184   0.00000  Uiso   1.00
H1     H     0.28297   0.33481   0.21910   0.00000  Uiso   1.00
H2     H     0.28297   0.66520   0.21909   0.00000  Uiso   1.00
H3     H     0.74652   0.79841   0.66083   0.00000  Uiso   1.00
H4     H     0.29843   0.24654   0.16084   0.00000  Uiso   1.00
H5     H     0.28297   0.66520   0.78093   0.00000  Uiso   1.00
H6     H     0.83480   0.21703   0.28092   0.00000  Uiso   1.00
H7     H     0.29842   0.24652   0.83917   0.00000  Uiso   1.00
H8     H     0.70159   0.75348   0.16083   0.00000  Uiso   1.00
H9     H     0.70159   0.75348   0.83917   0.00000  Uiso   1.00
H10    H     0.25346   0.20157   0.33916   0.00000  Uiso   1.00
H11    H     0.83480   0.21703   0.71907   0.00000  Uiso   1.00
H12    H     0.83480   0.78297   0.71907   0.00000  Uiso   1.00
H13    H     0.16520   0.78297   0.28091   0.00000  Uiso   1.00
H14    H     0.25348   0.20158   0.66083   0.00000  Uiso   1.00
H15    H     0.74652   0.79841   0.33917   0.00000  Uiso   1.00
H16    H     0.16520   0.78297   0.71907   0.00000  Uiso   1.00
H17    H     0.71703   0.33480   0.21908   0.00000  Uiso   1.00
H18    H     0.25347   0.79842   0.33916   0.00000  Uiso   1.00
H19    H     0.74652   0.20159   0.66083   0.00000  Uiso   1.00
H20    H     0.16519   0.21703   0.28089   0.00000  Uiso   1.00
H21    H     0.71703   0.66520   0.78093   0.00000  Uiso   1.00
H22    H     0.70159   0.24652   0.16083   0.00000  Uiso   1.00
H23    H     0.29842   0.75347   0.16084   0.00000  Uiso   1.00
H24    H     0.25348   0.79841   0.66083   0.00000  Uiso   1.00
H25    H     0.83480   0.78297   0.28093   0.00000  Uiso   1.00
H26    H     0.16520   0.21703   0.71908   0.00000  Uiso   1.00
H27    H     0.18548   0.44054   0.20637   0.00000  Uiso   1.00
H28    H     0.94053   0.68548   0.70635   0.00000  Uiso   1.00
H29    H     0.40767   0.84773   0.15448   0.00000  Uiso   1.00
H30    H     0.59234   0.15226   0.84553   0.00000  Uiso   1.00
H31    H     0.81452   0.55947   0.20636   0.00000  Uiso   1.00
H32    H     0.18548   0.44053   0.79364   0.00000  Uiso   1.00
H33    H     0.65226   0.09234   0.34553   0.00000  Uiso   1.00
H34    H     0.70159   0.24652   0.83917   0.00000  Uiso   1.00
H35    H     0.40767   0.84774   0.84552   0.00000  Uiso   1.00
H36    H     0.81452   0.44053   0.79364   0.00000  Uiso   1.00
H37    H     0.18548   0.55947   0.20637   0.00000  Uiso   1.00
H38    H     0.65226   0.90766   0.65447   0.00000  Uiso   1.00
H39    H     0.40768   0.15227   0.15449   0.00000  Uiso   1.00
H40    H     0.18547   0.55947   0.79365   0.00000  Uiso   1.00
H41    H     0.94053   0.31452   0.29364   0.00000  Uiso   1.00
H42    H     0.40767   0.15226   0.84552   0.00000  Uiso   1.00
H43    H     0.59234   0.84774   0.15447   0.00000  Uiso   1.00
H44    H     0.59234   0.84774   0.84553   0.00000  Uiso   1.00
H45    H     0.71703   0.66520   0.21907   0.00000  Uiso   1.00
H46    H     0.34773   0.09232   0.34551   0.00000  Uiso   1.00
H47    H     0.94053   0.31452   0.70636   0.00000  Uiso   1.00
H48    H     0.05946   0.68548   0.29363   0.00000  Uiso   1.00
H49    H     0.34774   0.09233   0.65448   0.00000  Uiso   1.00
H50    H     0.65226   0.90766   0.34553   0.00000  Uiso   1.00
H51    H     0.05947   0.68547   0.70635   0.00000  Uiso   1.00
H52    H     0.81452   0.44053   0.20636   0.00000  Uiso   1.00
H53    H     0.34773   0.90767   0.34552   0.00000  Uiso   1.00
H54    H     0.65226   0.09234   0.65447   0.00000  Uiso   1.00
H55    H     0.05946   0.31452   0.29362   0.00000  Uiso   1.00
H56    H     0.28297   0.33480   0.78092   0.00000  Uiso   1.00
H57    H     0.81452   0.55947   0.79365   0.00000  Uiso   1.00
H58    H     0.59233   0.15226   0.15448   0.00000  Uiso   1.00
H59    H     0.34774   0.90767   0.65448   0.00000  Uiso   1.00
H60    H     0.94053   0.68548   0.29365   0.00000  Uiso   1.00
H61    H     0.05947   0.31452   0.70636   0.00000  Uiso   1.00
H62    H     0.74652   0.20159   0.33917   0.00000  Uiso   1.00
H63    H     0.29841   0.75348   0.83917   0.00000  Uiso   1.00
H64    H     0.71703   0.33480   0.78093   0.00000  Uiso   1.00
O1     O    -0.00000   0.50000   0.25000   0.00000  Uiso   1.00
O2     O    -0.00000   0.45454   0.88202   0.00000  Uiso   1.00
O3     O     0.54546   0.00000   0.11798   0.00000  Uiso   1.00
O4     O     0.45454   0.00000   0.88202   0.00000  Uiso   1.00
O5     O     0.50000   0.95454   0.61798   0.00000  Uiso   1.00
O6     O     0.50000   0.04546   0.38202   0.00000  Uiso   1.00
O7     O     0.95454   0.50000   0.61798   0.00000  Uiso   1.00
O8     O     0.04546   0.50000   0.38202   0.00000  Uiso   1.00
O9     O     0.50000   0.04546   0.61798   0.00000  Uiso   1.00
O10    O     0.50000   0.95454   0.38202   0.00000  Uiso   1.00
O11    O     0.04546   0.50000   0.61798   0.00000  Uiso   1.00
O12    O     0.00000   0.50000   0.75000   0.00000  Uiso   1.00
O13    O     0.95454   0.50000   0.38202   0.00000  Uiso   1.00
O14    O     0.06399   0.60947   0.21539   0.00000  Uiso   1.00
O15    O     0.93601   0.39053   0.78461   0.00000  Uiso   1.00
O16    O     0.60947   0.93601   0.21539   0.00000  Uiso   1.00
O17    O     0.39053   0.06399   0.78461   0.00000  Uiso   1.00
O18    O     0.93601   0.39053   0.21539   0.00000  Uiso   1.00
O19    O     0.06399   0.60947   0.78461   0.00000  Uiso   1.00
O20    O     0.39053   0.06399   0.21539   0.00000  Uiso   1.00
O21    O     0.60947   0.93601   0.78461   0.00000  Uiso   1.00
O22    O     0.93601   0.60947   0.78461   0.00000  Uiso   1.00
O23    O     0.50000   0.00000   0.25000   0.00000  Uiso   1.00
O24    O     0.06399   0.39053   0.21539   0.00000  Uiso   1.00
O25    O     0.39053   0.93601   0.78461   0.00000  Uiso   1.00
O26    O     0.60947   0.06399   0.21539   0.00000  Uiso   1.00
O27    O     0.06399   0.39053   0.78461   0.00000  Uiso   1.00
O28    O     0.93601   0.60947   0.21539   0.00000  Uiso   1.00
O29    O     0.60947   0.06399   0.78461   0.00000  Uiso   1.00
O30    O     0.39053   0.93601   0.21539   0.00000  Uiso   1.00
O31    O     0.56399   0.10947   0.71539   0.00000  Uiso   1.00
O32    O     0.43601   0.89053   0.28461   0.00000  Uiso   1.00
O33    O     0.10947   0.43601   0.71539   0.00000  Uiso   1.00
O34    O     0.50000   0.00000   0.75000   0.00000  Uiso   1.00
O35    O     0.89053   0.56399   0.28461   0.00000  Uiso   1.00
O36    O     0.43601   0.89053   0.71539   0.00000  Uiso   1.00
O37    O     0.56399   0.10947   0.28461   0.00000  Uiso   1.00
O38    O     0.89053   0.56399   0.71539   0.00000  Uiso   1.00
O39    O     0.10947   0.43601   0.28461   0.00000  Uiso   1.00
O40    O     0.43601   0.10947   0.28461   0.00000  Uiso   1.00
O41    O     0.56399   0.89053   0.71539   0.00000  Uiso   1.00
O42    O     0.89053   0.43601   0.28461   0.00000  Uiso   1.00
O43    O     0.10947   0.56399   0.71539   0.00000  Uiso   1.00
O44    O     0.56399   0.89053   0.28461   0.00000  Uiso   1.00
O45    O     0.00000   0.45454   0.11798   0.00000  Uiso   1.00
O46    O     0.43601   0.10947   0.71539   0.00000  Uiso   1.00
O47    O     0.10947   0.56399   0.28461   0.00000  Uiso   1.00
O48    O     0.89053   0.43601   0.71539   0.00000  Uiso   1.00
O49    O     0.21777   0.41682   0.21250   0.00000  Uiso   1.00
O50    O     0.91681   0.71776   0.71247   0.00000  Uiso   1.00
O51    O     0.37648   0.82264   0.14809   0.00000  Uiso   1.00
O52    O     0.62353   0.17734   0.85191   0.00000  Uiso   1.00
O53    O     0.78224   0.58319   0.21247   0.00000  Uiso   1.00
O54    O     0.21776   0.41681   0.78752   0.00000  Uiso   1.00
O55    O     0.67734   0.12353   0.35191   0.00000  Uiso   1.00
O56    O     0.00000   0.54546   0.88202   0.00000  Uiso   1.00
O57    O     0.37647   0.82265   0.85191   0.00000  Uiso   1.00
O58    O     0.78224   0.41681   0.78753   0.00000  Uiso   1.00
O59    O     0.21777   0.58319   0.21249   0.00000  Uiso   1.00
O60    O     0.67734   0.87647   0.64808   0.00000  Uiso   1.00
O61    O     0.37649   0.17737   0.14810   0.00000  Uiso   1.00
O62    O     0.21776   0.58319   0.78753   0.00000  Uiso   1.00
O63    O     0.91681   0.28224   0.28752   0.00000  Uiso   1.00
O64    O     0.37648   0.17735   0.85191   0.00000  Uiso   1.00
O65    O     0.62353   0.82266   0.14808   0.00000  Uiso   1.00
O66    O     0.62353   0.82266   0.85192   0.00000  Uiso   1.00
O67    O     0.45454   0.00000   0.11798   0.00000  Uiso   1.00
O68    O     0.32263   0.12351   0.35190   0.00000  Uiso   1.00
O69    O     0.91681   0.28224   0.71247   0.00000  Uiso   1.00
O70    O     0.08319   0.71777   0.28751   0.00000  Uiso   1.00
O71    O     0.32265   0.12352   0.64809   0.00000  Uiso   1.00
O72    O     0.67734   0.87647   0.35191   0.00000  Uiso   1.00
O73    O     0.08319   0.71776   0.71247   0.00000  Uiso   1.00
O74    O     0.78224   0.41681   0.21248   0.00000  Uiso   1.00
O75    O     0.32264   0.87648   0.35191   0.00000  Uiso   1.00
O76    O     0.67734   0.12353   0.64809   0.00000  Uiso   1.00
O77    O     0.08318   0.28223   0.28749   0.00000  Uiso   1.00
O78    O     0.54546   0.00000   0.88202   0.00000  Uiso   1.00
O79    O     0.78224   0.58319   0.78753   0.00000  Uiso   1.00
O80    O     0.62353   0.17735   0.14809   0.00000  Uiso   1.00
O81    O     0.32265   0.87647   0.64809   0.00000  Uiso   1.00
O82    O     0.91681   0.71776   0.28753   0.00000  Uiso   1.00
O83    O     0.08319   0.28224   0.71248   0.00000  Uiso   1.00
O84    O    -0.00000   0.54546   0.11798   0.00000  Uiso   1.00
Zn1    Zn    0.06497   0.50000   0.29947   0.00000  Uiso   1.00
Zn2    Zn    0.43503   0.00000   0.20053   0.00000  Uiso   1.00
Zn3    Zn    0.00000   0.43503   0.79947   0.00000  Uiso   1.00
Zn4    Zn    0.00000   0.56497   0.20053   0.00000  Uiso   1.00
Zn5    Zn    0.43503   0.00000   0.79947   0.00000  Uiso   1.00
Zn6    Zn    0.56497   0.00000   0.20053   0.00000  Uiso   1.00
Zn7    Zn    0.00000   0.56497   0.79947   0.00000  Uiso   1.00
Zn8    Zn    0.00000   0.43503   0.20053   0.00000  Uiso   1.00
Zn9    Zn    0.93503   0.50000   0.70053   0.00000  Uiso   1.00
Zn10   Zn    0.50000   0.93503   0.29947   0.00000  Uiso   1.00
Zn11   Zn    0.50000   0.06497   0.70053   0.00000  Uiso   1.00
Zn12   Zn    0.93503   0.50000   0.29947   0.00000  Uiso   1.00
Zn13   Zn    0.06497   0.50000   0.70053   0.00000  Uiso   1.00
Zn14   Zn    0.50000   0.06497   0.29947   0.00000  Uiso   1.00
Zn15   Zn    0.50000   0.93503   0.70053   0.00000  Uiso   1.00
Zn16   Zn    0.56497   0.00000   0.79947   0.00000  Uiso   1.00
loop_
_geom_bond_atom_site_label_1
_geom_bond_atom_site_label_2
_geom_bond_distance
_geom_bond_site_symmetry_2
_ccdc_geom_bond_type
C1     C102    1.398   .     A
C1     C73     1.398   .     A
C1     C24     1.470   .     S
C2     C83     1.398   .     A
C2     C94     1.398   .     A
C2     C52     1.470   .     S
C3     O70     1.383   .     S
C3     C27     1.422   .     A
C3     C94     1.394   .     A
C4     C95     1.394   .     A
C4     C32     1.422   .     A
C4     O71     1.383   .     S
C5     C33     1.422   .     A
C5     O72     1.383   .     S
C5     C97     1.394   .     A
C6     C30     1.422   .     A
C6     O73     1.383   .     S
C6     C98     1.394   .     A
C7     C99     1.394   .     A
C7     C31     1.422   .     A
C7     O74     1.383   .     S
C8     O75     1.383   .     S
C8     C19     1.422   .     A
C8     C100    1.394   .     A
C9     C101    1.394   .     A
C9     O76     1.383   .     S
C9     C20     1.422   .     A
C10    C17     1.422   .     A
C10    O77     1.383   .     S
C10    C102    1.394   .     A
C11    C18     1.422   .     A
C11    O79     1.383   .     S
C11    C103    1.394   .     A
C12    C23     1.422   .     A
C12    C104    1.394   .     A
C12    O80     1.383   .     S
C13    C41     1.470   .     S
C13    C91     1.398   .     A
C13    C84     1.398   .     A
C14    C105    1.394   .     A
C14    O81     1.383   .     S
C14    C25     1.422   .     A
C15    O82     1.383   .     S
C15    C106    1.394   .     A
C15    C21     1.422   .     A
C16    O83     1.383   .     S
C16    C108    1.394   .     A
C16    C22     1.422   .     A
C17    C66     1.463   .     S
C17    C109    1.422   .     A
C18    C65     1.463   .     S
C18    C110    1.422   .     A
C19    C111    1.422   .     A
C19    C72     1.462   .     S
C20    C112    1.422   .     A
C20    C71     1.462   .     S
C21    C113    1.422   .     A
C21    C70     1.463   .     S
C22    C69     1.463   .     S
C22    C114    1.422   .     A
C23    C68     1.462   .     S
C23    C115    1.422   .     A
C24    C92     1.398   .     A
C24    C86     1.398   .     A
C25    C67     1.462   .     S
C25    C116    1.422   .     A
C26    C117    1.422   .     A
C26    C128    1.422   .     A
C26    C57     1.463   .     S
C27    C56     1.463   .     S
C27    C119    1.422   .     A
C28    C126    1.422   .     A
C28    C120    1.422   .     A
C28    C64     1.462   .     S
C29    C121    1.422   .     A
C29    C127    1.422   .     A
C29    C62     1.462   .     S
C30    C122    1.422   .     A
C30    C61     1.463   .     S
C31    C123    1.422   .     A
C31    C60     1.463   .     S
C32    C124    1.422   .     A
C32    C59     1.462   .     S
C33    C58     1.462   .     S
C33    C125    1.422   .     A
C34    C107    1.470   .     S
C34    C98     1.398   .     A
C34    C87     1.398   .     A
C35    C99     1.398   .     A
C35    C96     1.470   .     S
C35    C88     1.398   .     A
C36    C95     1.398   .     A
C36    C89     1.398   .     A
C36    C85     1.470   .     S
C37    C74     1.470   .     S
C37    C90     1.398   .     A
C37    C97     1.398   .     A
C38    C39     1.199   .     T
C38    C55     1.423   .     S
C39    C54     1.423   .     S
C40    C42     1.199   .     T
C40    C53     1.423   .     S
C41    C75     1.398   .     A
C41    C103    1.398   .     A
C42    C51     1.423   .     S
C43    C50     1.423   .     S
C43    C44     1.199   1_556 S
C44    C49     1.423   .     S
C44    C43     1.199   1_554 S
C45    C48     1.423   .     S
C45    C46     1.199   1_556 S
C46    C47     1.423   .     S
C46    C45     1.199   1_554 S
C47    O45     1.276   .     A
C47    O84     1.276   .     S
C48    O56     1.276   .     A
C48    O2      1.276   .     S
C49    O3      1.276   .     A
C49    O67     1.276   .     A
C50    O4      1.276   .     A
C50    O78     1.276   .     A
C51    O9      1.276   .     A
C51    O5      1.276   1_545 S
C52    C100    1.398   .     A
C52    C76     1.398   .     A
C53    O10     1.276   1_545 A
C53    O6      1.276   .     S
C54    O11     1.276   .     A
C54    O7      1.276   1_455 S
C55    O8      1.276   .     A
C55    O13     1.276   1_455 S
C56    O47     1.274   .     A
C56    O14     1.274   .     A
C57    O15     1.274   .     A
C57    O48     1.274   .     A
C58    O44     1.274   .     A
C58    O16     1.274   .     A
C59    O46     1.274   .     A
C59    O17     1.274   .     A
C60    O42     1.274   .     A
C60    O18     1.274   .     A
C61    O19     1.274   .     A
C61    O43     1.274   .     A
C62    O40     1.274   .     A
C62    O20     1.274   .     A
C63    C101    1.398   .     A
C63    C77     1.398   .     A
C63    C118    1.470   .     S
C64    O21     1.274   .     A
C64    O41     1.274   .     A
C65    O22     1.274   .     A
C65    O38     1.274   .     A
C66    O39     1.274   .     A
C66    O24     1.274   .     A
C67    O25     1.274   .     A
C67    O36     1.274   .     A
C68    O26     1.274   .     A
C68    O37     1.274   .     A
C69    O33     1.274   .     A
C69    O27     1.274   .     A
C70    O35     1.274   .     A
C70    O28     1.274   .     A
C71    O31     1.274   .     A
C71    O29     1.274   .     A
C72    O32     1.274   .     A
C72    O30     1.274   .     A
C73    H1      1.084   .     S
C73    C109    1.394   .     A
C74    C106    1.398   .     A
C74    C78     1.398   .     A
C75    H12     1.084   .     S
C75    C110    1.394   .     A
C76    H23     1.084   .     S
C76    C111    1.394   .     A
C77    C112    1.394   .     A
C77    H34     1.084   .     S
C78    C113    1.394   .     A
C78    H45     1.084   .     S
C79    H56     1.084   .     S
C79    C85     1.398   .     A
C79    C114    1.394   .     A
C80    H62     1.084   .     S
C80    C115    1.394   .     A
C80    C96     1.398   .     A
C81    C107    1.398   .     A
C81    H63     1.084   .     S
C81    C116    1.394   .     A
C82    H64     1.084   .     S
C82    C117    1.394   .     A
C82    C118    1.398   .     A
C83    C119    1.394   .     A
C83    H2      1.084   .     S
C84    C120    1.394   .     A
C84    H3      1.084   .     S
C85    C108    1.398   .     A
C86    C121    1.394   .     A
C86    H4      1.084   .     S
C87    H5      1.084   .     S
C87    C122    1.394   .     A
C88    C123    1.394   .     A
C88    H6      1.084   .     S
C89    H7      1.084   .     S
C89    C124    1.394   .     A
C90    C125    1.394   .     A
C90    H8      1.084   .     S
C91    C126    1.394   .     A
C91    H9      1.084   .     S
C92    H10     1.084   .     S
C92    C127    1.394   .     A
C93    H11     1.084   .     S
C93    C118    1.398   .     A
C93    C128    1.394   .     A
C94    H13     1.084   .     S
C95    H14     1.084   .     S
C96    C104    1.398   .     A
C97    H15     1.084   .     S
C98    H16     1.084   .     S
C99    H17     1.084   .     S
C100   H18     1.084   .     S
C101   H19     1.084   .     S
C102   H20     1.084   .     S
C103   H21     1.084   .     S
C104   H22     1.084   .     S
C105   C107    1.398   .     A
C105   H24     1.084   .     S
C106   H25     1.084   .     S
C108   H26     1.084   .     S
C109   O49     1.383   .     S
C110   O50     1.383   .     S
C111   O51     1.383   .     S
C112   O52     1.383   .     S
C113   O53     1.383   .     S
C114   O54     1.383   .     S
C115   O55     1.383   .     S
C116   O57     1.383   .     S
C117   O58     1.383   .     S
C119   O59     1.383   .     S
C120   O60     1.383   .     S
C121   O61     1.383   .     S
C122   O62     1.383   .     S
C123   O63     1.383   .     S
C124   O64     1.383   .     S
C125   O65     1.383   .     S
C126   O66     1.383   .     S
C127   O68     1.383   .     S
C128   O69     1.383   .     S
H27    O49     0.988   .     S
H28    O50     0.988   .     S
H29    O51     0.988   .     S
H30    O52     0.988   .     S
H31    O53     0.988   .     S
H32    O54     0.988   .     S
H33    O55     0.988   .     S
H35    O57     0.988   .     S
H36    O58     0.988   .     S
H37    O59     0.988   .     S
H38    O60     0.988   .     S
H39    O61     0.988   .     S
H40    O62     0.988   .     S
H41    O63     0.988   .     S
H42    O64     0.988   .     S
H43    O65     0.988   .     S
H44    O66     0.988   .     S
H46    O68     0.988   .     S
H47    O69     0.988   .     S
H48    O70     0.988   .     S
H49    O71     0.988   .     S
H50    O72     0.988   .     S
H51    O73     0.988   .     S
H52    O74     0.988   .     S
H53    O75     0.988   .     S
H54    O76     0.988   .     S
H55    O77     0.988   .     S
H57    O79     0.988   .     S
H58    O80     0.988   .     S
H59    O81     0.988   .     S
H60    O82     0.988   .     S
H61    O83     0.988   .     S
O1     Zn12    1.937   1_455 S
O1     Zn1     1.937   .     S
O1     Zn4     1.937   .     S
O1     Zn8     1.937   .     S
O2     Zn3     1.916   .     S
O3     Zn6     1.916   .     S
O4     Zn5     1.916   .     S
O5     Zn15    1.916   .     S
O5     C51     1.276   1_565 S
O6     Zn14    1.916   .     S
O7     Zn9     1.916   .     S
O7     C54     1.276   1_655 S
O8     Zn1     1.916   .     S
O9     Zn11    1.916   .     S
O10    Zn10    1.916   .     S
O10    C53     1.276   1_565 A
O11    Zn13    1.916   .     S
O12    Zn13    1.937   .     S
O12    Zn7     1.937   .     S
O12    Zn3     1.937   .     S
O12    Zn9     1.937   1_455 S
O13    Zn12    1.916   .     S
O13    C55     1.276   1_655 S
O14    Zn4     1.932   .     S
O15    Zn3     1.932   1_655 S
O16    Zn6     1.932   1_565 S
O17    Zn5     1.932   .     S
O18    Zn8     1.932   1_655 S
O19    Zn7     1.932   .     S
O20    Zn2     1.932   .     S
O21    Zn16    1.932   1_565 S
O22    Zn7     1.932   1_655 S
O23    Zn2     1.937   .     S
O23    Zn6     1.937   .     S
O23    Zn10    1.937   1_545 S
O23    Zn14    1.937   .     S
O24    Zn8     1.932   .     S
O25    Zn5     1.932   1_565 S
O26    Zn6     1.932   .     S
O27    Zn3     1.932   .     S
O28    Zn4     1.932   1_655 S
O29    Zn16    1.932   .     S
O30    Zn2     1.932   1_565 S
O31    Zn11    1.932   .     S
O32    Zn10    1.932   .     S
O33    Zn13    1.932   .     S
O34    Zn16    1.937   .     S
O34    Zn11    1.937   .     S
O34    Zn5     1.937   .     S
O34    Zn15    1.937   1_545 S
O35    Zn12    1.932   .     S
O36    Zn15    1.932   .     S
O37    Zn14    1.932   .     S
O38    Zn9     1.932   .     S
O39    Zn1     1.932   .     S
O40    Zn14    1.932   .     S
O41    Zn15    1.932   .     S
O42    Zn12    1.932   .     S
O43    Zn13    1.932   .     S
O44    Zn10    1.932   .     S
O45    Zn8     1.916   .     S
O46    Zn11    1.932   .     S
O47    Zn1     1.932   .     S
O48    Zn9     1.932   .     S
O56    Zn7     1.916   .     S
O67    Zn2     1.916   .     S
O78    Zn16    1.916   .     S
O84    Zn4     1.916   .     S
Zn2    O30     1.932   1_545 S
Zn3    O15     1.932   1_455 S
Zn4    O28     1.932   1_455 S
Zn5    O25     1.932   1_545 S
Zn6    O16     1.932   1_545 S
Zn7    O22     1.932   1_455 S
Zn8    O18     1.932   1_455 S
Zn9    O12     1.937   1_655 S
Zn10   O23     1.937   1_565 S
Zn12   O1      1.937   1_655 S
Zn15   O34     1.937   1_565 S
Zn16   O21     1.932   1_545 S
