data_str_m1_o2_o5_pcu_sym.20
_audit_creation_date              2020-01-03
_audit_creation_method            'Materials Studio'
_symmetry_space_group_name_H-M    'P1'
_symmetry_Int_Tables_number       1
_symmetry_cell_setting            triclinic
loop_
_symmetry_equiv_pos_as_xyz
  x,y,z
_cell_length_a                    24.4115
_cell_length_b                    24.4115
_cell_length_c                    22.4651
_cell_angle_alpha                 90.0000
_cell_angle_beta                  90.0001
_cell_angle_gamma                 89.9999
loop_
_atom_site_label
_atom_site_type_symbol
_atom_site_fract_x
_atom_site_fract_y
_atom_site_fract_z
_atom_site_U_iso_or_equiv
_atom_site_adp_type
_atom_site_occupancy
C1     C     0.22869   0.27131   0.25000   0.00000  Uiso   1.00
C2     C     0.22869   0.72869   0.25000   0.00000  Uiso   1.00
C3     C     0.20250   0.63319   0.25865   0.00000  Uiso   1.00
C4     C     0.33799   0.17367   0.69680   0.00000  Uiso   1.00
C5     C     0.63318   0.79750   0.25863   0.00000  Uiso   1.00
C6     C     0.20249   0.63318   0.74134   0.00000  Uiso   1.00
C7     C     0.79751   0.36681   0.25865   0.00000  Uiso   1.00
C8     C     0.33797   0.82636   0.30321   0.00000  Uiso   1.00
C9     C     0.66206   0.17361   0.69678   0.00000  Uiso   1.00
C10    C     0.17365   0.33797   0.30321   0.00000  Uiso   1.00
C11    C     0.79750   0.63317   0.74140   0.00000  Uiso   1.00
C12    C     0.66203   0.17363   0.30321   0.00000  Uiso   1.00
C13    C     0.72869   0.77131   0.75000   0.00000  Uiso   1.00
C14    C     0.33795   0.82638   0.69679   0.00000  Uiso   1.00
C15    C     0.82635   0.66202   0.30321   0.00000  Uiso   1.00
C16    C     0.20250   0.36683   0.74140   0.00000  Uiso   1.00
C17    C     0.14754   0.35246   0.25000   0.00000  Uiso   1.00
C18    C     0.85246   0.64754   0.75000   0.00000  Uiso   1.00
C19    C     0.35246   0.85246   0.25000   0.00000  Uiso   1.00
C20    C     0.64754   0.14754   0.75000   0.00000  Uiso   1.00
C21    C     0.85246   0.64754   0.25000   0.00000  Uiso   1.00
C22    C     0.14754   0.35246   0.75000   0.00000  Uiso   1.00
C23    C     0.64754   0.14754   0.25000   0.00000  Uiso   1.00
C24    C     0.27131   0.22869   0.25000   0.00000  Uiso   1.00
C25    C     0.35246   0.85246   0.75000   0.00000  Uiso   1.00
C26    C     0.85246   0.35246   0.75000   0.00000  Uiso   1.00
C27    C     0.14755   0.64755   0.25000   0.00000  Uiso   1.00
C28    C     0.64755   0.85245   0.75000   0.00000  Uiso   1.00
C29    C     0.35246   0.14754   0.25000   0.00000  Uiso   1.00
C30    C     0.14754   0.64754   0.75000   0.00000  Uiso   1.00
C31    C     0.85245   0.35245   0.25000   0.00000  Uiso   1.00
C32    C     0.35246   0.14754   0.75000   0.00000  Uiso   1.00
C33    C     0.64755   0.85245   0.25000   0.00000  Uiso   1.00
C34    C     0.22869   0.72869   0.75000   0.00000  Uiso   1.00
C35    C     0.77131   0.27131   0.25000   0.00000  Uiso   1.00
C36    C     0.27131   0.22869   0.75000   0.00000  Uiso   1.00
C37    C     0.72869   0.77131   0.25000   0.00000  Uiso   1.00
C38    C     0.00000   0.50000   0.47333   0.00000  Uiso   1.00
C39    C     0.00000   0.50000   0.52667   0.00000  Uiso   1.00
C40    C     0.50000  -0.00000   0.47333   0.00000  Uiso   1.00
C41    C     0.77132   0.72868   0.75000   0.00000  Uiso   1.00
C42    C     0.50000  -0.00000   0.52667   0.00000  Uiso   1.00
C43    C     0.50000  -0.00000   0.97333   0.00000  Uiso   1.00
C44    C     0.50000  -0.00000   0.02667   0.00000  Uiso   1.00
C45    C     0.00000   0.50000   0.97333   0.00000  Uiso   1.00
C46    C     0.00000   0.50000   0.02667   0.00000  Uiso   1.00
C47    C     0.00000   0.50000   0.08998   0.00000  Uiso   1.00
C48    C     0.00000   0.50000   0.91002   0.00000  Uiso   1.00
C49    C     0.50000  -0.00000   0.08998   0.00000  Uiso   1.00
C50    C     0.50000  -0.00000   0.91002   0.00000  Uiso   1.00
C51    C     0.50000  -0.00000   0.58998   0.00000  Uiso   1.00
C52    C     0.27132   0.77132   0.25000   0.00000  Uiso   1.00
C53    C     0.50000  -0.00000   0.41002   0.00000  Uiso   1.00
C54    C     0.00000   0.50000   0.58998   0.00000  Uiso   1.00
C55    C     0.00000   0.50000   0.41002   0.00000  Uiso   1.00
C56    C     0.10520   0.60520   0.25000   0.00000  Uiso   1.00
C57    C     0.89480   0.39480   0.75000   0.00000  Uiso   1.00
C58    C     0.60520   0.89480   0.25000   0.00000  Uiso   1.00
C59    C     0.39480   0.10520   0.75000   0.00000  Uiso   1.00
C60    C     0.89480   0.39480   0.25000   0.00000  Uiso   1.00
C61    C     0.10520   0.60520   0.75000   0.00000  Uiso   1.00
C62    C     0.39480   0.10520   0.25000   0.00000  Uiso   1.00
C63    C     0.72869   0.22869   0.75000   0.00000  Uiso   1.00
C64    C     0.60520   0.89480   0.75000   0.00000  Uiso   1.00
C65    C     0.89481   0.60519   0.75000   0.00000  Uiso   1.00
C66    C     0.10520   0.39481   0.25000   0.00000  Uiso   1.00
C67    C     0.39481   0.89480   0.75000   0.00000  Uiso   1.00
C68    C     0.60519   0.10519   0.25000   0.00000  Uiso   1.00
C69    C     0.10520   0.39481   0.75000   0.00000  Uiso   1.00
C70    C     0.89481   0.60519   0.25000   0.00000  Uiso   1.00
C71    C     0.60520   0.10519   0.75000   0.00000  Uiso   1.00
C72    C     0.39481   0.89480   0.25000   0.00000  Uiso   1.00
C73    C     0.20301   0.28658   0.19633   0.00000  Uiso   1.00
C74    C     0.77132   0.72868   0.25000   0.00000  Uiso   1.00
C75    C     0.82674   0.74317   0.75767   0.00000  Uiso   1.00
C76    C     0.28659   0.79698   0.19633   0.00000  Uiso   1.00
C77    C     0.71338   0.20305   0.80368   0.00000  Uiso   1.00
C78    C     0.79699   0.71342   0.19633   0.00000  Uiso   1.00
C79    C     0.17326   0.25683   0.75767   0.00000  Uiso   1.00
C80    C     0.71341   0.20302   0.19633   0.00000  Uiso   1.00
C81    C     0.28660   0.79696   0.80367   0.00000  Uiso   1.00
C82    C     0.82673   0.25684   0.75776   0.00000  Uiso   1.00
C83    C     0.17327   0.74317   0.24228   0.00000  Uiso   1.00
C84    C     0.71344   0.79700   0.80366   0.00000  Uiso   1.00
C85    C     0.22869   0.27131   0.75000   0.00000  Uiso   1.00
C86    C     0.25683   0.17327   0.24228   0.00000  Uiso   1.00
C87    C     0.17327   0.74316   0.75773   0.00000  Uiso   1.00
C88    C     0.82673   0.25683   0.24228   0.00000  Uiso   1.00
C89    C     0.28656   0.20299   0.80366   0.00000  Uiso   1.00
C90    C     0.74317   0.82673   0.24229   0.00000  Uiso   1.00
C91    C     0.70300   0.78656   0.69634   0.00000  Uiso   1.00
C92    C     0.32673   0.24317   0.25771   0.00000  Uiso   1.00
C93    C     0.75684   0.32672   0.74224   0.00000  Uiso   1.00
C94    C     0.24317   0.67327   0.25772   0.00000  Uiso   1.00
C95    C     0.29701   0.21344   0.69634   0.00000  Uiso   1.00
C96    C     0.72868   0.22868   0.25000   0.00000  Uiso   1.00
C97    C     0.67327   0.75683   0.25771   0.00000  Uiso   1.00
C98    C     0.24316   0.67327   0.74227   0.00000  Uiso   1.00
C99    C     0.75683   0.32673   0.25772   0.00000  Uiso   1.00
C100   C     0.29698   0.78659   0.30367   0.00000  Uiso   1.00
C101   C     0.70305   0.21338   0.69632   0.00000  Uiso   1.00
C102   C     0.21342   0.29699   0.30367   0.00000  Uiso   1.00
C103   C     0.75683   0.67326   0.74233   0.00000  Uiso   1.00
C104   C     0.70302   0.21341   0.30367   0.00000  Uiso   1.00
C105   C     0.29697   0.78660   0.69633   0.00000  Uiso   1.00
C106   C     0.78658   0.70301   0.30367   0.00000  Uiso   1.00
C107   C     0.27131   0.77131   0.75000   0.00000  Uiso   1.00
C108   C     0.24317   0.32674   0.74233   0.00000  Uiso   1.00
C109   C     0.16203   0.32635   0.19679   0.00000  Uiso   1.00
C110   C     0.86683   0.70249   0.75860   0.00000  Uiso   1.00
C111   C     0.32636   0.83797   0.19679   0.00000  Uiso   1.00
C112   C     0.67361   0.16206   0.80322   0.00000  Uiso   1.00
C113   C     0.83798   0.67365   0.19679   0.00000  Uiso   1.00
C114   C     0.13317   0.29750   0.75860   0.00000  Uiso   1.00
C115   C     0.67363   0.16203   0.19679   0.00000  Uiso   1.00
C116   C     0.32638   0.83795   0.80322   0.00000  Uiso   1.00
C117   C     0.86681   0.29751   0.75868   0.00000  Uiso   1.00
C118   C     0.77131   0.27131   0.75000   0.00000  Uiso   1.00
C119   C     0.13319   0.70250   0.24135   0.00000  Uiso   1.00
C120   C     0.67367   0.83799   0.80321   0.00000  Uiso   1.00
C121   C     0.29751   0.13318   0.24136   0.00000  Uiso   1.00
C122   C     0.13318   0.70249   0.75866   0.00000  Uiso   1.00
C123   C     0.86681   0.29750   0.24135   0.00000  Uiso   1.00
C124   C     0.32633   0.16201   0.80320   0.00000  Uiso   1.00
C125   C     0.70250   0.86682   0.24137   0.00000  Uiso   1.00
C126   C     0.66201   0.82633   0.69680   0.00000  Uiso   1.00
C127   C     0.36682   0.20249   0.25864   0.00000  Uiso   1.00
C128   C     0.79751   0.36681   0.74132   0.00000  Uiso   1.00
Cl1    Cl    0.22202   0.25745   0.12760   0.00000  Uiso   1.00
Cl2    Cl    0.15260   0.81198   0.23484   0.00000  Uiso   1.00
Cl3    Cl    0.74260   0.77802   0.87239   0.00000  Uiso   1.00
Cl4    Cl    0.18802   0.15259   0.23486   0.00000  Uiso   1.00
Cl5    Cl    0.15259   0.81198   0.76519   0.00000  Uiso   1.00
Cl6    Cl    0.84740   0.18802   0.23483   0.00000  Uiso   1.00
Cl7    Cl    0.25740   0.22197   0.87239   0.00000  Uiso   1.00
Cl8    Cl    0.81198   0.84741   0.23487   0.00000  Uiso   1.00
Cl9    Cl    0.72198   0.75740   0.62761   0.00000  Uiso   1.00
Cl10   Cl    0.34741   0.31198   0.26514   0.00000  Uiso   1.00
Cl11   Cl    0.68803   0.34740   0.73475   0.00000  Uiso   1.00
Cl12   Cl    0.84742   0.81198   0.76505   0.00000  Uiso   1.00
Cl13   Cl    0.31198   0.65260   0.26516   0.00000  Uiso   1.00
Cl14   Cl    0.27803   0.24260   0.62761   0.00000  Uiso   1.00
Cl15   Cl    0.65259   0.68802   0.26513   0.00000  Uiso   1.00
Cl16   Cl    0.31198   0.65259   0.73481   0.00000  Uiso   1.00
Cl17   Cl    0.68802   0.34740   0.26517   0.00000  Uiso   1.00
Cl18   Cl    0.27797   0.75747   0.37240   0.00000  Uiso   1.00
Cl19   Cl    0.72210   0.24246   0.62758   0.00000  Uiso   1.00
Cl20   Cl    0.24255   0.27798   0.37240   0.00000  Uiso   1.00
Cl21   Cl    0.68802   0.65258   0.73495   0.00000  Uiso   1.00
Cl22   Cl    0.72203   0.24252   0.37240   0.00000  Uiso   1.00
Cl23   Cl    0.25747   0.77797   0.12760   0.00000  Uiso   1.00
Cl24   Cl    0.27793   0.75750   0.62759   0.00000  Uiso   1.00
Cl25   Cl    0.75744   0.72200   0.37239   0.00000  Uiso   1.00
Cl26   Cl    0.31199   0.34742   0.73496   0.00000  Uiso   1.00
Cl27   Cl    0.74246   0.22210   0.87242   0.00000  Uiso   1.00
Cl28   Cl    0.77800   0.74256   0.12760   0.00000  Uiso   1.00
Cl29   Cl    0.15258   0.18801   0.76504   0.00000  Uiso   1.00
Cl30   Cl    0.74252   0.22203   0.12760   0.00000  Uiso   1.00
Cl31   Cl    0.25750   0.77793   0.87241   0.00000  Uiso   1.00
Cl32   Cl    0.84740   0.18803   0.76525   0.00000  Uiso   1.00
H1     H     0.14233   0.33779   0.15539   0.00000  Uiso   1.00
H2     H     0.09066   0.71390   0.23522   0.00000  Uiso   1.00
H3     H     0.66225   0.85770   0.84461   0.00000  Uiso   1.00
H4     H     0.28610   0.09065   0.23523   0.00000  Uiso   1.00
H5     H     0.09065   0.71389   0.76480   0.00000  Uiso   1.00
H6     H     0.90934   0.28610   0.23522   0.00000  Uiso   1.00
H7     H     0.33775   0.14229   0.84460   0.00000  Uiso   1.00
H8     H     0.71390   0.90935   0.23525   0.00000  Uiso   1.00
H9     H     0.64230   0.83775   0.65539   0.00000  Uiso   1.00
H10    H     0.40935   0.21390   0.26477   0.00000  Uiso   1.00
H11    H     0.78611   0.40934   0.73516   0.00000  Uiso   1.00
H12    H     0.90936   0.71390   0.76469   0.00000  Uiso   1.00
H13    H     0.21390   0.59066   0.26478   0.00000  Uiso   1.00
H14    H     0.35770   0.16225   0.65539   0.00000  Uiso   1.00
H15    H     0.59065   0.78610   0.26476   0.00000  Uiso   1.00
H16    H     0.21389   0.59065   0.73521   0.00000  Uiso   1.00
H17    H     0.78610   0.40934   0.26478   0.00000  Uiso   1.00
H18    H     0.35766   0.83780   0.34462   0.00000  Uiso   1.00
H19    H     0.64240   0.16214   0.65537   0.00000  Uiso   1.00
H20    H     0.16221   0.35767   0.34461   0.00000  Uiso   1.00
H21    H     0.78610   0.59064   0.73531   0.00000  Uiso   1.00
H22    H     0.64234   0.16219   0.34462   0.00000  Uiso   1.00
H23    H     0.33780   0.85766   0.15538   0.00000  Uiso   1.00
H24    H     0.35763   0.83783   0.65538   0.00000  Uiso   1.00
H25    H     0.83778   0.64232   0.34461   0.00000  Uiso   1.00
H26    H     0.21390   0.40936   0.73531   0.00000  Uiso   1.00
H27    H     0.66214   0.14240   0.84463   0.00000  Uiso   1.00
H28    H     0.85768   0.66222   0.15539   0.00000  Uiso   1.00
H29    H     0.09064   0.28610   0.76469   0.00000  Uiso   1.00
H30    H     0.66219   0.14234   0.15538   0.00000  Uiso   1.00
H31    H     0.33783   0.85763   0.84462   0.00000  Uiso   1.00
H32    H     0.90934   0.28611   0.76484   0.00000  Uiso   1.00
O1     O     0.00000   0.50000   0.25000   0.00000  Uiso   1.00
O2     O     0.00000   0.45454   0.88202   0.00000  Uiso   1.00
O3     O     0.54546  -0.00000   0.11798   0.00000  Uiso   1.00
O4     O     0.45454  -0.00000   0.88202   0.00000  Uiso   1.00
O5     O     0.50000   0.95454   0.61798   0.00000  Uiso   1.00
O6     O     0.50000   0.04546   0.38202   0.00000  Uiso   1.00
O7     O     0.95454   0.50000   0.61798   0.00000  Uiso   1.00
O8     O     0.04546   0.50000   0.38202   0.00000  Uiso   1.00
O9     O     0.50000   0.04546   0.61798   0.00000  Uiso   1.00
O10    O     0.50000   0.95454   0.38202   0.00000  Uiso   1.00
O11    O     0.04546   0.50000   0.61798   0.00000  Uiso   1.00
O12    O     0.00000   0.50000   0.75000   0.00000  Uiso   1.00
O13    O     0.95454   0.50000   0.38202   0.00000  Uiso   1.00
O14    O     0.06399   0.60947   0.21539   0.00000  Uiso   1.00
O15    O     0.93601   0.39053   0.78461   0.00000  Uiso   1.00
O16    O     0.60947   0.93601   0.21539   0.00000  Uiso   1.00
O17    O     0.39053   0.06399   0.78461   0.00000  Uiso   1.00
O18    O     0.93601   0.39053   0.21539   0.00000  Uiso   1.00
O19    O     0.06399   0.60947   0.78461   0.00000  Uiso   1.00
O20    O     0.39053   0.06399   0.21539   0.00000  Uiso   1.00
O21    O     0.60947   0.93601   0.78461   0.00000  Uiso   1.00
O22    O     0.93601   0.60947   0.78461   0.00000  Uiso   1.00
O23    O     0.50000  -0.00000   0.25000   0.00000  Uiso   1.00
O24    O     0.06399   0.39053   0.21539   0.00000  Uiso   1.00
O25    O     0.39053   0.93601   0.78461   0.00000  Uiso   1.00
O26    O     0.60947   0.06399   0.21539   0.00000  Uiso   1.00
O27    O     0.06399   0.39053   0.78461   0.00000  Uiso   1.00
O28    O     0.93601   0.60947   0.21539   0.00000  Uiso   1.00
O29    O     0.60947   0.06399   0.78461   0.00000  Uiso   1.00
O30    O     0.39053   0.93601   0.21539   0.00000  Uiso   1.00
O31    O     0.56399   0.10947   0.71539   0.00000  Uiso   1.00
O32    O     0.43601   0.89053   0.28461   0.00000  Uiso   1.00
O33    O     0.10947   0.43601   0.71539   0.00000  Uiso   1.00
O34    O     0.50000  -0.00000   0.75000   0.00000  Uiso   1.00
O35    O     0.89053   0.56399   0.28461   0.00000  Uiso   1.00
O36    O     0.43601   0.89053   0.71539   0.00000  Uiso   1.00
O37    O     0.56399   0.10947   0.28461   0.00000  Uiso   1.00
O38    O     0.89053   0.56399   0.71539   0.00000  Uiso   1.00
O39    O     0.10947   0.43601   0.28461   0.00000  Uiso   1.00
O40    O     0.43601   0.10947   0.28461   0.00000  Uiso   1.00
O41    O     0.56399   0.89053   0.71539   0.00000  Uiso   1.00
O42    O     0.89053   0.43601   0.28461   0.00000  Uiso   1.00
O43    O     0.10947   0.56399   0.71539   0.00000  Uiso   1.00
O44    O     0.56399   0.89053   0.28461   0.00000  Uiso   1.00
O45    O     0.00000   0.45454   0.11798   0.00000  Uiso   1.00
O46    O     0.43601   0.10947   0.71539   0.00000  Uiso   1.00
O47    O     0.10947   0.56399   0.28461   0.00000  Uiso   1.00
O48    O     0.89053   0.43601   0.71539   0.00000  Uiso   1.00
O49    O     0.00000   0.54546   0.88202   0.00000  Uiso   1.00
O50    O     0.45454  -0.00000   0.11798   0.00000  Uiso   1.00
O51    O     0.54546  -0.00000   0.88202   0.00000  Uiso   1.00
O52    O     0.00000   0.54546   0.11798   0.00000  Uiso   1.00
Zn1    Zn    0.06497   0.50000   0.29947   0.00000  Uiso   1.00
Zn2    Zn    0.43503  -0.00000   0.20053   0.00000  Uiso   1.00
Zn3    Zn    0.00000   0.43503   0.79947   0.00000  Uiso   1.00
Zn4    Zn    0.00000   0.56497   0.20053   0.00000  Uiso   1.00
Zn5    Zn    0.43503  -0.00000   0.79947   0.00000  Uiso   1.00
Zn6    Zn    0.56497  -0.00000   0.20053   0.00000  Uiso   1.00
Zn7    Zn    0.00000   0.56497   0.79947   0.00000  Uiso   1.00
Zn8    Zn    0.00000   0.43503   0.20053   0.00000  Uiso   1.00
Zn9    Zn    0.93503   0.50000   0.70053   0.00000  Uiso   1.00
Zn10   Zn    0.50000   0.93503   0.29947   0.00000  Uiso   1.00
Zn11   Zn    0.50000   0.06497   0.70053   0.00000  Uiso   1.00
Zn12   Zn    0.93503   0.50000   0.29947   0.00000  Uiso   1.00
Zn13   Zn    0.06497   0.50000   0.70053   0.00000  Uiso   1.00
Zn14   Zn    0.50000   0.06497   0.29947   0.00000  Uiso   1.00
Zn15   Zn    0.50000   0.93503   0.70053   0.00000  Uiso   1.00
Zn16   Zn    0.56497  -0.00000   0.79947   0.00000  Uiso   1.00
loop_
_geom_bond_atom_site_label_1
_geom_bond_atom_site_label_2
_geom_bond_distance
_geom_bond_site_symmetry_2
_ccdc_geom_bond_type
C1     C73     1.409   .     A
C1     C24     1.472   .     S
C1     C102    1.409   .     A
C2     C83     1.409   .     A
C2     C94     1.409   .     A
C2     C52     1.472   .     S
C3     H13     1.084   .     S
C3     C27     1.400   .     A
C3     C94     1.394   .     A
C4     H14     1.084   .     S
C4     C32     1.400   .     A
C4     C95     1.394   .     A
C5     H15     1.084   .     S
C5     C33     1.400   .     A
C5     C97     1.394   .     A
C6     C98     1.394   .     A
C6     C30     1.400   .     A
C6     H16     1.084   .     S
C7     C99     1.394   .     A
C7     H17     1.084   .     S
C7     C31     1.400   .     A
C8     C19     1.400   .     A
C8     H18     1.084   .     S
C8     C100    1.394   .     A
C9     H19     1.084   .     S
C9     C20     1.400   .     A
C9     C101    1.394   .     A
C10    C17     1.400   .     A
C10    C102    1.394   .     A
C10    H20     1.084   .     S
C11    C18     1.400   .     A
C11    H21     1.084   .     S
C11    C103    1.394   .     A
C12    C104    1.394   .     A
C12    H22     1.084   .     S
C12    C23     1.400   .     A
C13    C41     1.472   .     S
C13    C84     1.409   .     A
C13    C91     1.409   .     A
C14    C105    1.394   .     A
C14    H24     1.084   .     S
C14    C25     1.400   .     A
C15    C106    1.394   .     A
C15    C21     1.400   .     A
C15    H25     1.084   .     S
C16    C22     1.400   .     A
C16    H26     1.084   .     S
C16    C108    1.394   .     A
C17    C66     1.462   .     S
C17    C109    1.400   .     A
C18    C65     1.462   .     S
C18    C110    1.400   .     A
C19    C72     1.462   .     S
C19    C111    1.400   .     A
C20    C112    1.400   .     A
C20    C71     1.462   .     S
C21    C113    1.400   .     A
C21    C70     1.462   .     S
C22    C69     1.462   .     S
C22    C114    1.400   .     A
C23    C68     1.462   .     S
C23    C115    1.400   .     A
C24    C92     1.409   .     A
C24    C86     1.409   .     A
C25    C116    1.400   .     A
C25    C67     1.462   .     S
C26    C117    1.400   .     A
C26    C128    1.400   .     A
C26    C57     1.462   .     S
C27    C119    1.400   .     A
C27    C56     1.462   .     S
C28    C126    1.400   .     A
C28    C120    1.400   .     A
C28    C64     1.462   .     S
C29    C121    1.400   .     A
C29    C62     1.462   .     S
C29    C127    1.400   .     A
C30    C122    1.400   .     A
C30    C61     1.462   .     S
C31    C60     1.462   .     S
C31    C123    1.400   .     A
C32    C124    1.400   .     A
C32    C59     1.462   .     S
C33    C58     1.462   .     S
C33    C125    1.400   .     A
C34    C107    1.472   .     S
C34    C98     1.409   .     A
C34    C87     1.409   .     A
C35    C96     1.472   .     S
C35    C99     1.409   .     A
C35    C88     1.409   .     A
C36    C89     1.409   .     A
C36    C85     1.472   .     S
C36    C95     1.409   .     A
C37    C74     1.472   .     S
C37    C97     1.409   .     A
C37    C90     1.409   .     A
C38    C55     1.422   .     S
C38    C39     1.198   .     S
C39    C54     1.422   .     S
C40    C53     1.422   .     S
C40    C42     1.198   .     S
C41    C75     1.409   .     A
C41    C103    1.409   .     A
C42    C51     1.422   .     S
C43    C50     1.422   .     S
C43    C44     1.198   1_556 S
C44    C43     1.198   1_554 S
C44    C49     1.422   .     S
C45    C48     1.422   .     S
C45    C46     1.198   1_556 S
C46    C47     1.422   .     S
C46    C45     1.198   1_554 S
C47    O45     1.276   .     S
C47    O52     1.276   .     S
C48    O2      1.276   .     A
C48    O49     1.276   .     A
C49    O3      1.276   .     S
C49    O50     1.276   .     S
C50    O4      1.276   .     A
C50    O51     1.276   .     A
C51    O9      1.276   .     A
C51    O5      1.276   1_545 S
C52    C100    1.409   .     A
C52    C76     1.409   .     A
C53    O10     1.276   1_545 A
C53    O6      1.276   .     S
C54    O7      1.276   1_455 A
C54    O11     1.276   .     S
C55    O8      1.276   .     A
C55    O13     1.276   1_455 S
C56    O47     1.276   .     A
C56    O14     1.276   .     A
C57    O15     1.276   .     A
C57    O48     1.276   .     A
C58    O44     1.276   .     A
C58    O16     1.276   .     A
C59    O46     1.276   .     A
C59    O17     1.276   .     A
C60    O42     1.276   .     A
C60    O18     1.276   .     A
C61    O19     1.276   .     A
C61    O43     1.276   .     A
C62    O40     1.276   .     A
C62    O20     1.276   .     A
C63    C101    1.409   .     A
C63    C118    1.472   .     S
C63    C77     1.409   .     A
C64    O21     1.276   .     A
C64    O41     1.276   .     A
C65    O38     1.276   .     A
C65    O22     1.276   .     A
C66    O39     1.276   .     A
C66    O24     1.276   .     A
C67    O25     1.276   .     A
C67    O36     1.276   .     A
C68    O26     1.276   .     A
C68    O37     1.276   .     A
C69    O27     1.276   .     A
C69    O33     1.276   .     A
C70    O35     1.276   .     A
C70    O28     1.276   .     A
C71    O31     1.276   .     A
C71    O29     1.276   .     A
C72    O32     1.276   .     A
C72    O30     1.276   .     A
C73    Cl1     1.762   .     S
C73    C109    1.394   .     A
C74    C106    1.409   .     A
C74    C78     1.409   .     A
C75    Cl12    1.762   .     S
C75    C110    1.394   .     A
C76    Cl23    1.762   .     S
C76    C111    1.394   .     A
C77    C112    1.394   .     A
C77    Cl27    1.762   .     S
C78    C113    1.394   .     A
C78    Cl28    1.762   .     S
C79    Cl29    1.762   .     S
C79    C114    1.394   .     A
C79    C85     1.409   .     A
C80    C96     1.409   .     A
C80    Cl30    1.762   .     S
C80    C115    1.394   .     A
C81    C107    1.409   .     A
C81    Cl31    1.762   .     S
C81    C116    1.394   .     A
C82    C117    1.394   .     A
C82    Cl32    1.762   .     S
C82    C118    1.409   .     A
C83    C119    1.394   .     A
C83    Cl2     1.762   .     S
C84    C120    1.394   .     A
C84    Cl3     1.762   .     S
C85    C108    1.409   .     A
C86    C121    1.394   .     A
C86    Cl4     1.762   .     S
C87    Cl5     1.762   .     S
C87    C122    1.394   .     A
C88    C123    1.394   .     A
C88    Cl6     1.762   .     S
C89    Cl7     1.762   .     S
C89    C124    1.394   .     A
C90    Cl8     1.762   .     S
C90    C125    1.394   .     A
C91    C126    1.394   .     A
C91    Cl9     1.762   .     S
C92    Cl10    1.762   .     S
C92    C127    1.394   .     A
C93    Cl11    1.762   .     S
C93    C118    1.409   .     A
C93    C128    1.394   .     A
C94    Cl13    1.762   .     S
C95    Cl14    1.762   .     S
C96    C104    1.409   .     A
C97    Cl15    1.762   .     S
C98    Cl16    1.762   .     S
C99    Cl17    1.762   .     S
C100   Cl18    1.762   .     S
C101   Cl19    1.762   .     S
C102   Cl20    1.762   .     S
C103   Cl21    1.762   .     S
C104   Cl22    1.762   .     S
C105   C107    1.409   .     A
C105   Cl24    1.762   .     S
C106   Cl25    1.762   .     S
C108   Cl26    1.762   .     S
C109   H1      1.084   .     S
C110   H12     1.084   .     S
C111   H23     1.084   .     S
C112   H27     1.084   .     S
C113   H28     1.084   .     S
C114   H29     1.084   .     S
C115   H30     1.084   .     S
C116   H31     1.084   .     S
C117   H32     1.084   .     S
C119   H2      1.084   .     S
C120   H3      1.084   .     S
C121   H4      1.084   .     S
C122   H5      1.084   .     S
C123   H6      1.084   .     S
C124   H7      1.084   .     S
C125   H8      1.084   .     S
C126   H9      1.084   .     S
C127   H10     1.084   .     S
C128   H11     1.084   .     S
O1     Zn8     1.937   .     S
O1     Zn4     1.937   .     S
O1     Zn1     1.937   .     S
O1     Zn12    1.937   1_455 S
O2     Zn3     1.915   .     S
O3     Zn6     1.915   .     S
O4     Zn5     1.915   .     S
O5     Zn15    1.915   .     S
O5     C51     1.276   1_565 S
O6     Zn14    1.915   .     S
O7     Zn9     1.915   .     S
O7     C54     1.276   1_655 A
O8     Zn1     1.915   .     S
O9     Zn11    1.915   .     S
O10    Zn10    1.915   .     S
O10    C53     1.276   1_565 A
O11    Zn13    1.915   .     S
O12    Zn13    1.937   .     S
O12    Zn3     1.937   .     S
O12    Zn7     1.937   .     S
O12    Zn9     1.937   1_455 S
O13    Zn12    1.915   .     S
O13    C55     1.276   1_655 S
O14    Zn4     1.932   .     S
O15    Zn3     1.932   1_655 S
O16    Zn6     1.932   1_565 S
O17    Zn5     1.932   .     S
O18    Zn8     1.932   1_655 S
O19    Zn7     1.932   .     S
O20    Zn2     1.932   .     S
O21    Zn16    1.932   1_565 S
O22    Zn7     1.932   1_655 S
O23    Zn6     1.937   .     S
O23    Zn2     1.937   .     S
O23    Zn14    1.937   .     S
O23    Zn10    1.937   1_545 S
O24    Zn8     1.932   .     S
O25    Zn5     1.932   1_565 S
O26    Zn6     1.932   .     S
O27    Zn3     1.932   .     S
O28    Zn4     1.932   1_655 S
O29    Zn16    1.932   .     S
O30    Zn2     1.932   1_565 S
O31    Zn11    1.932   .     S
O32    Zn10    1.932   .     S
O33    Zn13    1.932   .     S
O34    Zn5     1.937   .     S
O34    Zn16    1.937   .     S
O34    Zn11    1.937   .     S
O34    Zn15    1.937   1_545 S
O35    Zn12    1.932   .     S
O36    Zn15    1.932   .     S
O37    Zn14    1.932   .     S
O38    Zn9     1.932   .     S
O39    Zn1     1.932   .     S
O40    Zn14    1.932   .     S
O41    Zn15    1.932   .     S
O42    Zn12    1.932   .     S
O43    Zn13    1.932   .     S
O44    Zn10    1.932   .     S
O45    Zn8     1.915   .     S
O46    Zn11    1.932   .     S
O47    Zn1     1.932   .     S
O48    Zn9     1.932   .     S
O49    Zn7     1.915   .     S
O50    Zn2     1.915   .     S
O51    Zn16    1.915   .     S
O52    Zn4     1.915   .     S
Zn2    O30     1.932   1_545 S
Zn3    O15     1.932   1_455 S
Zn4    O28     1.932   1_455 S
Zn5    O25     1.932   1_545 S
Zn6    O16     1.932   1_545 S
Zn7    O22     1.932   1_455 S
Zn8    O18     1.932   1_455 S
Zn9    O12     1.937   1_655 S
Zn10   O23     1.937   1_565 S
Zn12   O1      1.937   1_655 S
Zn15   O34     1.937   1_565 S
Zn16   O21     1.932   1_545 S
