data_str_m1_o2_o5_pcu_sym.48
_audit_creation_date              2020-01-03
_audit_creation_method            'Materials Studio'
_symmetry_space_group_name_H-M    'P1'
_symmetry_Int_Tables_number       1
_symmetry_cell_setting            triclinic
loop_
_symmetry_equiv_pos_as_xyz
  x,y,z
_cell_length_a                    24.5437
_cell_length_b                    24.3208
_cell_length_c                    22.4162
_cell_angle_alpha                 89.8095
_cell_angle_beta                  90.0601
_cell_angle_gamma                 89.9930
loop_
_atom_site_label
_atom_site_type_symbol
_atom_site_fract_x
_atom_site_fract_y
_atom_site_fract_z
_atom_site_U_iso_or_equiv
_atom_site_adp_type
_atom_site_occupancy
Zn1    Zn    0.06497   0.50000   0.29947   0.00000  Uiso   1.00
Zn2    Zn    0.93503   0.50000   0.70053   0.00000  Uiso   1.00
Zn3    Zn    0.50000   0.93503   0.29947   0.00000  Uiso   1.00
Zn4    Zn    0.50000   0.06497   0.70053   0.00000  Uiso   1.00
Zn5    Zn    0.93503   0.50000   0.29947   0.00000  Uiso   1.00
Zn6    Zn    0.06497   0.50000   0.70053   0.00000  Uiso   1.00
Zn7    Zn    0.50000   0.06497   0.29947   0.00000  Uiso   1.00
Zn8    Zn    0.50000   0.93503   0.70053   0.00000  Uiso   1.00
Zn9    Zn    0.56497  -0.00000   0.79947   0.00000  Uiso   1.00
Zn10   Zn    0.43503  -0.00000   0.20053   0.00000  Uiso   1.00
Zn11   Zn    0.00000   0.43503   0.79947   0.00000  Uiso   1.00
Zn12   Zn    0.00000   0.56497   0.20053   0.00000  Uiso   1.00
Zn13   Zn    0.43503  -0.00000   0.79947   0.00000  Uiso   1.00
Zn14   Zn    0.56497  -0.00000   0.20053   0.00000  Uiso   1.00
Zn15   Zn    0.00000   0.56497   0.79947   0.00000  Uiso   1.00
Zn16   Zn    0.00000   0.43503   0.20053   0.00000  Uiso   1.00
C1     C     0.22333   0.26569   0.25030   0.00000  Uiso   1.00
C2     C     0.76590   0.72330   0.75040   0.00000  Uiso   1.00
C3     C     0.27106   0.77136   0.25854   0.00000  Uiso   1.00
C4     C     0.73339   0.22491   0.74188   0.00000  Uiso   1.00
C5     C     0.77676   0.73446   0.25060   0.00000  Uiso   1.00
C6     C     0.22407   0.26563   0.74318   0.00000  Uiso   1.00
C7     C     0.72889   0.22862   0.25846   0.00000  Uiso   1.00
C8     C     0.27575   0.76578   0.75713   0.00000  Uiso   1.00
C9     C     0.76661   0.27509   0.75812   0.00000  Uiso   1.00
C10    C     0.22893   0.72865   0.24147   0.00000  Uiso   1.00
C11    C     0.73410   0.77670   0.74959   0.00000  Uiso   1.00
C12    C     0.27667   0.23431   0.24970   0.00000  Uiso   1.00
C13    C     0.22425   0.73422   0.74287   0.00000  Uiso   1.00
C14    C     0.77112   0.27138   0.24154   0.00000  Uiso   1.00
C15    C     0.27593   0.23437   0.75682   0.00000  Uiso   1.00
C16    C     0.72329   0.76561   0.24963   0.00000  Uiso   1.00
O1     O     0.00000   0.50000   0.25000   0.00000  Uiso   1.00
O2     O     0.00000   0.50000   0.75000   0.00000  Uiso   1.00
O3     O     0.50000  -0.00000   0.25000   0.00000  Uiso   1.00
O4     O     0.50000  -0.00000   0.75000   0.00000  Uiso   1.00
O5     O     0.00000   0.45454   0.11798   0.00000  Uiso   1.00
O6     O     0.00000   0.54546   0.88202   0.00000  Uiso   1.00
O7     O     0.45454  -0.00000   0.11798   0.00000  Uiso   1.00
O8     O     0.54546  -0.00000   0.88202   0.00000  Uiso   1.00
O9     O     0.00000   0.54546   0.11798   0.00000  Uiso   1.00
O10    O     0.00000   0.45454   0.88202   0.00000  Uiso   1.00
O11    O     0.54546  -0.00000   0.11798   0.00000  Uiso   1.00
O12    O     0.45454  -0.00000   0.88202   0.00000  Uiso   1.00
O13    O     0.50000   0.95454   0.61798   0.00000  Uiso   1.00
O14    O     0.50000   0.04546   0.38202   0.00000  Uiso   1.00
O15    O     0.95454   0.50000   0.61798   0.00000  Uiso   1.00
O16    O     0.04546   0.50000   0.38202   0.00000  Uiso   1.00
O17    O     0.50000   0.04546   0.61798   0.00000  Uiso   1.00
O18    O     0.50000   0.95454   0.38202   0.00000  Uiso   1.00
O19    O     0.04546   0.50000   0.61798   0.00000  Uiso   1.00
O20    O     0.95454   0.50000   0.38202   0.00000  Uiso   1.00
O21    O     0.06399   0.60947   0.21539   0.00000  Uiso   1.00
O22    O     0.93601   0.39053   0.78461   0.00000  Uiso   1.00
O23    O     0.60947   0.93601   0.21539   0.00000  Uiso   1.00
O24    O     0.39053   0.06399   0.78461   0.00000  Uiso   1.00
O25    O     0.93601   0.39053   0.21539   0.00000  Uiso   1.00
O26    O     0.06399   0.60947   0.78461   0.00000  Uiso   1.00
O27    O     0.39053   0.06399   0.21539   0.00000  Uiso   1.00
O28    O     0.60947   0.93601   0.78461   0.00000  Uiso   1.00
O29    O     0.93601   0.60947   0.78461   0.00000  Uiso   1.00
O30    O     0.06399   0.39053   0.21539   0.00000  Uiso   1.00
O31    O     0.39053   0.93601   0.78461   0.00000  Uiso   1.00
O32    O     0.60947   0.06399   0.21539   0.00000  Uiso   1.00
O33    O     0.06399   0.39053   0.78461   0.00000  Uiso   1.00
O34    O     0.93601   0.60947   0.21539   0.00000  Uiso   1.00
O35    O     0.60947   0.06399   0.78461   0.00000  Uiso   1.00
O36    O     0.39053   0.93601   0.21539   0.00000  Uiso   1.00
O37    O     0.56399   0.10947   0.71539   0.00000  Uiso   1.00
O38    O     0.43601   0.89053   0.28461   0.00000  Uiso   1.00
O39    O     0.10947   0.43601   0.71539   0.00000  Uiso   1.00
O40    O     0.89053   0.56399   0.28461   0.00000  Uiso   1.00
O41    O     0.43601   0.89053   0.71539   0.00000  Uiso   1.00
O42    O     0.56399   0.10947   0.28461   0.00000  Uiso   1.00
O43    O     0.89053   0.56399   0.71539   0.00000  Uiso   1.00
O44    O     0.10947   0.43601   0.28461   0.00000  Uiso   1.00
O45    O     0.43601   0.10947   0.28461   0.00000  Uiso   1.00
O46    O     0.56399   0.89053   0.71539   0.00000  Uiso   1.00
O47    O     0.89053   0.43601   0.28461   0.00000  Uiso   1.00
O48    O     0.10947   0.56399   0.71539   0.00000  Uiso   1.00
O49    O     0.56399   0.89053   0.28461   0.00000  Uiso   1.00
O50    O     0.43601   0.10947   0.71539   0.00000  Uiso   1.00
O51    O     0.10947   0.56399   0.28461   0.00000  Uiso   1.00
O52    O     0.89053   0.43601   0.71539   0.00000  Uiso   1.00
C17    C     0.00003   0.50002   0.47330   0.00000  Uiso   1.00
C18    C     0.99998   0.50002   0.52670   0.00000  Uiso   1.00
C19    C     0.50003   0.99992   0.47332   0.00000  Uiso   1.00
C20    C     0.50004   0.00008   0.52668   0.00000  Uiso   1.00
C21    C     0.50002   0.99998   0.97329   0.00000  Uiso   1.00
C22    C     0.49997   0.99998   0.02670   0.00000  Uiso   1.00
C23    C     0.99996   0.49992   0.97333   0.00000  Uiso   1.00
C24    C     0.99997   0.50008   0.02668   0.00000  Uiso   1.00
C25    C    -0.00001   0.50006   0.08995   0.00000  Uiso   1.00
C26    C     0.99996   0.49994   0.91005   0.00000  Uiso   1.00
C27    C     0.49998   0.99999   0.09007   0.00000  Uiso   1.00
C28    C     0.50002   0.99999   0.90993   0.00000  Uiso   1.00
C29    C     0.50004   0.00006   0.58995   0.00000  Uiso   1.00
C30    C     0.50001   0.99994   0.41005   0.00000  Uiso   1.00
C31    C     0.99998   0.50001   0.59007   0.00000  Uiso   1.00
C32    C     0.00002   0.50001   0.40993   0.00000  Uiso   1.00
C33    C     0.10489   0.60557   0.24985   0.00000  Uiso   1.00
C34    C     0.89334   0.39588   0.75248   0.00000  Uiso   1.00
C35    C     0.60510   0.89464   0.25053   0.00000  Uiso   1.00
C36    C     0.39621   0.10701   0.75205   0.00000  Uiso   1.00
C37    C     0.89513   0.39448   0.24991   0.00000  Uiso   1.00
C38    C     0.10381   0.60696   0.74781   0.00000  Uiso   1.00
C39    C     0.39485   0.10524   0.25049   0.00000  Uiso   1.00
C40    C     0.60512   0.89473   0.75038   0.00000  Uiso   1.00
C41    C     0.89488   0.60527   0.74962   0.00000  Uiso   1.00
C42    C     0.10515   0.39476   0.24951   0.00000  Uiso   1.00
C43    C     0.39619   0.89304   0.75219   0.00000  Uiso   1.00
C44    C     0.60487   0.10552   0.25009   0.00000  Uiso   1.00
C45    C     0.10379   0.39299   0.74795   0.00000  Uiso   1.00
C46    C     0.89491   0.60537   0.24948   0.00000  Uiso   1.00
C47    C     0.60666   0.10412   0.74753   0.00000  Uiso   1.00
C48    C     0.39512   0.89442   0.25015   0.00000  Uiso   1.00
C49    C     0.19427   0.27803   0.19743   0.00000  Uiso   1.00
C50    C     0.78139   0.69702   0.80422   0.00000  Uiso   1.00
C51    C     0.25729   0.82721   0.26752   0.00000  Uiso   1.00
C52    C     0.74544   0.17201   0.76451   0.00000  Uiso   1.00
C53    C     0.80655   0.72340   0.19804   0.00000  Uiso   1.00
C54    C     0.17518   0.25612   0.77466   0.00000  Uiso   1.00
C55    C     0.74262   0.17277   0.26791   0.00000  Uiso   1.00
C56    C     0.27900   0.80289   0.80531   0.00000  Uiso   1.00
C57    C     0.80787   0.27339   0.80197   0.00000  Uiso   1.00
C58    C     0.17424   0.74269   0.22860   0.00000  Uiso   1.00
C59    C     0.72191   0.80587   0.80234   0.00000  Uiso   1.00
C60    C     0.30297   0.21946   0.19597   0.00000  Uiso   1.00
C61    C     0.17453   0.74436   0.77245   0.00000  Uiso   1.00
C62    C     0.82587   0.25735   0.22926   0.00000  Uiso   1.00
C63    C     0.28049   0.19825   0.80603   0.00000  Uiso   1.00
C64    C     0.69759   0.78141   0.19571   0.00000  Uiso   1.00
C65    C     0.71862   0.80298   0.69577   0.00000  Uiso   1.00
C66    C     0.30573   0.22197   0.30257   0.00000  Uiso   1.00
C67    C     0.75457   0.32799   0.73549   0.00000  Uiso   1.00
C68    C     0.24270   0.67280   0.23248   0.00000  Uiso   1.00
C69    C     0.32482   0.24388   0.72534   0.00000  Uiso   1.00
C70    C     0.69356   0.77678   0.30219   0.00000  Uiso   1.00
C71    C     0.22100   0.69711   0.69469   0.00000  Uiso   1.00
C72    C     0.75739   0.32723   0.23209   0.00000  Uiso   1.00
C73    C     0.32574   0.75731   0.27141   0.00000  Uiso   1.00
C74    C     0.69214   0.22661   0.69804   0.00000  Uiso   1.00
C75    C     0.19703   0.28054   0.30402   0.00000  Uiso   1.00
C76    C     0.77809   0.69413   0.69765   0.00000  Uiso   1.00
C77    C     0.67413   0.24265   0.27074   0.00000  Uiso   1.00
C78    C     0.32547   0.75564   0.72755   0.00000  Uiso   1.00
C79    C     0.80243   0.71853   0.30450   0.00000  Uiso   1.00
C80    C     0.21951   0.30175   0.69397   0.00000  Uiso   1.00
C81    C     0.15891   0.32328   0.19630   0.00000  Uiso   1.00
C82    C     0.82645   0.66141   0.80503   0.00000  Uiso   1.00
C83    C     0.29716   0.86816   0.26053   0.00000  Uiso   1.00
C84    C     0.70428   0.13195   0.76712   0.00000  Uiso   1.00
C85    C     0.84209   0.67833   0.19669   0.00000  Uiso   1.00
C86    C     0.13543   0.29750   0.77713   0.00000  Uiso   1.00
C87    C     0.70279   0.13181   0.26086   0.00000  Uiso   1.00
C88    C     0.31796   0.84513   0.80429   0.00000  Uiso   1.00
C89    C     0.85005   0.31225   0.80052   0.00000  Uiso   1.00
C90    C     0.13326   0.70314   0.23610   0.00000  Uiso   1.00
C91    C     0.67661   0.84090   0.80350   0.00000  Uiso   1.00
C92    C     0.33882   0.17443   0.19517   0.00000  Uiso   1.00
C93    C     0.13470   0.70304   0.77496   0.00000  Uiso   1.00
C94    C     0.86681   0.29691   0.23685   0.00000  Uiso   1.00
C95    C     0.31941   0.15596   0.80509   0.00000  Uiso   1.00
C96    C     0.66159   0.82633   0.19505   0.00000  Uiso   1.00
C97    C     0.67355   0.83859   0.69497   0.00000  Uiso   1.00
C98    C     0.34109   0.17672   0.30370   0.00000  Uiso   1.00
C99    C     0.79572   0.36805   0.73288   0.00000  Uiso   1.00
C100   C     0.20283   0.63185   0.23946   0.00000  Uiso   1.00
C101   C     0.36458   0.20250   0.72287   0.00000  Uiso   1.00
C102   C     0.65805   0.82188   0.30347   0.00000  Uiso   1.00
C103   C     0.18204   0.65486   0.69570   0.00000  Uiso   1.00
C104   C     0.79721   0.36819   0.23914   0.00000  Uiso   1.00
C105   C     0.36673   0.79686   0.26392   0.00000  Uiso   1.00
C106   C     0.64996   0.18775   0.69948   0.00000  Uiso   1.00
C107   C     0.16118   0.32557   0.30483   0.00000  Uiso   1.00
C108   C     0.82340   0.65910   0.69650   0.00000  Uiso   1.00
C109   C     0.63319   0.20309   0.26315   0.00000  Uiso   1.00
C110   C     0.36530   0.79696   0.72504   0.00000  Uiso   1.00
C111   C     0.83841   0.67360   0.30509   0.00000  Uiso   1.00
C112   C     0.18059   0.34404   0.69491   0.00000  Uiso   1.00
C113   C     0.14497   0.34965   0.25027   0.00000  Uiso   1.00
C114   C     0.85007   0.64529   0.75045   0.00000  Uiso   1.00
C115   C     0.35223   0.85246   0.25443   0.00000  Uiso   1.00
C116   C     0.65332   0.14250   0.73951   0.00000  Uiso   1.00
C117   C     0.85535   0.65073   0.25037   0.00000  Uiso   1.00
C118   C     0.14129   0.34531   0.74123   0.00000  Uiso   1.00
C119   C     0.64775   0.14749   0.25421   0.00000  Uiso   1.00
C120   C     0.35851   0.84548   0.75923   0.00000  Uiso   1.00
C121   C     0.84668   0.35750   0.76049   0.00000  Uiso   1.00
C122   C     0.14777   0.64754   0.24558   0.00000  Uiso   1.00
C123   C     0.64993   0.85471   0.74955   0.00000  Uiso   1.00
C124   C     0.35503   0.15035   0.24973   0.00000  Uiso   1.00
C125   C     0.14150   0.65451   0.74077   0.00000  Uiso   1.00
C126   C     0.85225   0.35251   0.24579   0.00000  Uiso   1.00
C127   C     0.35871   0.15469   0.75877   0.00000  Uiso   1.00
C128   C     0.64470   0.84933   0.24972   0.00000  Uiso   1.00
Cl1    Cl    0.18959   0.22964   0.13871   0.00000  Uiso   1.00
Cl2    Cl    0.73390   0.69086   0.86341   0.00000  Uiso   1.00
Cl3    Cl    0.19842   0.84442   0.30923   0.00000  Uiso   1.00
Cl4    Cl    0.81394   0.14946   0.77019   0.00000  Uiso   1.00
Cl5    Cl    0.81178   0.77301   0.14023   0.00000  Uiso   1.00
Cl6    Cl    0.15514   0.18828   0.79376   0.00000  Uiso   1.00
Cl7    Cl    0.80125   0.15554   0.31027   0.00000  Uiso   1.00
Cl8    Cl    0.24855   0.78648   0.87481   0.00000  Uiso   1.00
Cl9    Cl    0.79819   0.23584   0.86906   0.00000  Uiso   1.00
Cl10   Cl    0.15817   0.80314   0.18787   0.00000  Uiso   1.00
Cl11   Cl    0.77032   0.81138   0.86075   0.00000  Uiso   1.00
Cl12   Cl    0.30855   0.26796   0.13708   0.00000  Uiso   1.00
Cl13   Cl    0.15400   0.81260   0.78859   0.00000  Uiso   1.00
Cl14   Cl    0.84217   0.19694   0.18904   0.00000  Uiso   1.00
Cl15   Cl    0.25200   0.21620   0.87597   0.00000  Uiso   1.00
Cl16   Cl    0.69302   0.73413   0.13589   0.00000  Uiso   1.00
Cl17   Cl    0.76610   0.80914   0.63659   0.00000  Uiso   1.00
Cl18   Cl    0.31041   0.27036   0.36129   0.00000  Uiso   1.00
Cl19   Cl    0.68606   0.35054   0.72981   0.00000  Uiso   1.00
Cl20   Cl    0.30157   0.65560   0.19076   0.00000  Uiso   1.00
Cl21   Cl    0.34486   0.31172   0.70624   0.00000  Uiso   1.00
Cl22   Cl    0.68828   0.72723   0.36005   0.00000  Uiso   1.00
Cl23   Cl    0.25145   0.71352   0.62519   0.00000  Uiso   1.00
Cl24   Cl    0.69875   0.34446   0.18973   0.00000  Uiso   1.00
Cl25   Cl    0.34181   0.69686   0.31214   0.00000  Uiso   1.00
Cl26   Cl    0.70181   0.26416   0.63095   0.00000  Uiso   1.00
Cl27   Cl    0.19145   0.23204   0.36292   0.00000  Uiso   1.00
Cl28   Cl    0.72969   0.68862   0.63924   0.00000  Uiso   1.00
Cl29   Cl    0.65783   0.30306   0.31097   0.00000  Uiso   1.00
Cl30   Cl    0.34601   0.68740   0.71141   0.00000  Uiso   1.00
Cl31   Cl    0.80711   0.76576   0.36437   0.00000  Uiso   1.00
Cl32   Cl    0.24800   0.28380   0.62403   0.00000  Uiso   1.00
N1     N     0.13740   0.34235   0.14035   0.00000  Uiso   1.00
O53    O     0.10325   0.31220   0.11043   0.00000  Uiso   1.00
O54    O     0.14817   0.39195   0.12193   0.00000  Uiso   1.00
N2     N     0.84452   0.63815   0.86070   0.00000  Uiso   1.00
O55    O     0.84983   0.58518   0.86672   0.00000  Uiso   1.00
O56    O     0.85060   0.66946   0.90719   0.00000  Uiso   1.00
N3     N     0.28194   0.92510   0.26503   0.00000  Uiso   1.00
O57    O     0.30736   0.95762   0.30170   0.00000  Uiso   1.00
O58    O     0.23934   0.94331   0.23657   0.00000  Uiso   1.00
N4     N     0.71649   0.07928   0.79292   0.00000  Uiso   1.00
O59    O     0.71449   0.03527   0.76011   0.00000  Uiso   1.00
O60    O     0.73699   0.07619   0.84638   0.00000  Uiso   1.00
N5     N     0.86455   0.66082   0.14081   0.00000  Uiso   1.00
O61    O     0.90016   0.69124   0.11316   0.00000  Uiso   1.00
O62    O     0.85297   0.61227   0.12013   0.00000  Uiso   1.00
N6     N     0.08752   0.28824   0.81235   0.00000  Uiso   1.00
O63    O     0.04069   0.28140   0.78614   0.00000  Uiso   1.00
O64    O     0.09213   0.27711   0.86894   0.00000  Uiso   1.00
N7     N     0.71800   0.07487   0.26585   0.00000  Uiso   1.00
O65    O     0.69240   0.04231   0.30250   0.00000  Uiso   1.00
O66    O     0.76076   0.05669   0.23788   0.00000  Uiso   1.00
N8     N     0.31871   0.88421   0.85210   0.00000  Uiso   1.00
O67    O     0.36021   0.88600   0.88823   0.00000  Uiso   1.00
O68    O     0.27489   0.91179   0.86502   0.00000  Uiso   1.00
N9     N     0.89352   0.30742   0.84302   0.00000  Uiso   1.00
O69    O     0.89776   0.34318   0.88584   0.00000  Uiso   1.00
O70    O     0.92213   0.26244   0.84555   0.00000  Uiso   1.00
N10    N     0.07710   0.71961   0.23422   0.00000  Uiso   1.00
O71    O     0.04625   0.71242   0.28077   0.00000  Uiso   1.00
O72    O     0.05554   0.73718   0.18467   0.00000  Uiso   1.00
N11    N     0.65782   0.86226   0.85946   0.00000  Uiso   1.00
O73    O     0.68744   0.89709   0.88917   0.00000  Uiso   1.00
O74    O     0.60894   0.85070   0.87808   0.00000  Uiso   1.00
N12    N     0.36209   0.15689   0.13954   0.00000  Uiso   1.00
O75    O     0.41463   0.15190   0.13387   0.00000  Uiso   1.00
O76    O     0.33119   0.15092   0.09281   0.00000  Uiso   1.00
N13    N     0.08583   0.71303   0.80826   0.00000  Uiso   1.00
O77    O     0.03957   0.71836   0.78041   0.00000  Uiso   1.00
O78    O     0.08888   0.72597   0.86443   0.00000  Uiso   1.00
N14    N     0.92298   0.28045   0.23559   0.00000  Uiso   1.00
O79    O     0.94479   0.26277   0.18638   0.00000  Uiso   1.00
O80    O     0.95362   0.28782   0.28228   0.00000  Uiso   1.00
N15    N     0.32157   0.11789   0.85408   0.00000  Uiso   1.00
O81    O     0.36446   0.11618   0.88823   0.00000  Uiso   1.00
O82    O     0.27802   0.09103   0.86982   0.00000  Uiso   1.00
N16    N     0.63884   0.84483   0.13934   0.00000  Uiso   1.00
O83    O     0.58634   0.84954   0.13291   0.00000  Uiso   1.00
O84    O     0.67024   0.85195   0.09321   0.00000  Uiso   1.00
N17    N     0.65548   0.86185   0.63929   0.00000  Uiso   1.00
O85    O     0.65016   0.91482   0.63328   0.00000  Uiso   1.00
O86    O     0.64940   0.83053   0.59281   0.00000  Uiso   1.00
N18    N     0.36260   0.15765   0.35965   0.00000  Uiso   1.00
O87    O     0.39676   0.18780   0.38957   0.00000  Uiso   1.00
O88    O     0.35183   0.10805   0.37807   0.00000  Uiso   1.00
N19    N     0.78351   0.42072   0.70708   0.00000  Uiso   1.00
O89    O     0.78551   0.46473   0.73989   0.00000  Uiso   1.00
O90    O     0.76301   0.42381   0.65362   0.00000  Uiso   1.00
N20    N     0.21806   0.57491   0.23496   0.00000  Uiso   1.00
O91    O     0.19264   0.54239   0.19828   0.00000  Uiso   1.00
O92    O     0.26067   0.55670   0.26340   0.00000  Uiso   1.00
N21    N     0.41248   0.21176   0.68765   0.00000  Uiso   1.00
O93    O     0.45931   0.21860   0.71386   0.00000  Uiso   1.00
O94    O     0.40787   0.22289   0.63106   0.00000  Uiso   1.00
N22    N     0.63575   0.83963   0.35936   0.00000  Uiso   1.00
O95    O     0.60054   0.80914   0.38752   0.00000  Uiso   1.00
O96    O     0.64699   0.88845   0.37948   0.00000  Uiso   1.00
N23    N     0.18129   0.61579   0.64790   0.00000  Uiso   1.00
O97    O     0.13979   0.61400   0.61177   0.00000  Uiso   1.00
O98    O     0.22512   0.58821   0.63497   0.00000  Uiso   1.00
N24    N     0.78200   0.42513   0.23415   0.00000  Uiso   1.00
O99    O     0.73924   0.44330   0.26212   0.00000  Uiso   1.00
O100   O     0.80760   0.45769   0.19750   0.00000  Uiso   1.00
N25    N     0.42288   0.78039   0.26582   0.00000  Uiso   1.00
O101   O     0.44444   0.76288   0.31541   0.00000  Uiso   1.00
O102   O     0.45374   0.78753   0.21928   0.00000  Uiso   1.00
N26    N     0.60648   0.19257   0.65698   0.00000  Uiso   1.00
O103   O     0.60224   0.15682   0.61416   0.00000  Uiso   1.00
O104   O     0.57787   0.23756   0.65445   0.00000  Uiso   1.00
N27    N     0.13791   0.34311   0.36046   0.00000  Uiso   1.00
O105   O     0.08537   0.34810   0.36613   0.00000  Uiso   1.00
O106   O     0.16881   0.34908   0.40719   0.00000  Uiso   1.00
N28    N     0.84219   0.63775   0.64054   0.00000  Uiso   1.00
O107   O     0.81257   0.60291   0.61082   0.00000  Uiso   1.00
O108   O     0.89107   0.64930   0.62192   0.00000  Uiso   1.00
N29    N     0.57702   0.21955   0.26442   0.00000  Uiso   1.00
O109   O     0.55521   0.23723   0.31363   0.00000  Uiso   1.00
O110   O     0.54638   0.21218   0.21772   0.00000  Uiso   1.00
N30    N     0.41417   0.78697   0.69174   0.00000  Uiso   1.00
O111   O     0.46043   0.78164   0.71959   0.00000  Uiso   1.00
O112   O     0.41112   0.77403   0.63557   0.00000  Uiso   1.00
N31    N     0.86110   0.65498   0.36078   0.00000  Uiso   1.00
O113   O     0.82966   0.64780   0.40686   0.00000  Uiso   1.00
O114   O     0.91359   0.65024   0.36725   0.00000  Uiso   1.00
N32    N     0.17843   0.38211   0.64592   0.00000  Uiso   1.00
O115   O     0.13554   0.38382   0.61177   0.00000  Uiso   1.00
O116   O     0.22198   0.40897   0.63018   0.00000  Uiso   1.00
loop_
_geom_bond_atom_site_label_1
_geom_bond_atom_site_label_2
_geom_bond_distance
_geom_bond_site_symmetry_2
_ccdc_geom_bond_type
Zn1    O16     1.912   .     S
Zn1    O44     1.931   .     S
Zn1    O51     1.930   .     S
Zn1    O1      1.941   .     S
Zn2    O2      1.941   1_655 S
Zn2    O15     1.912   .     S
Zn2    O43     1.931   .     S
Zn2    O52     1.930   .     S
Zn3    O49     1.937   .     S
Zn3    O18     1.912   .     S
Zn3    O38     1.937   .     S
Zn3    O3      1.927   1_565 S
Zn4    O4      1.927   .     S
Zn4    O37     1.937   .     S
Zn4    O17     1.912   .     S
Zn4    O50     1.937   .     S
Zn5    O40     1.929   .     S
Zn5    O47     1.931   .     S
Zn5    O20     1.911   .     S
Zn5    O1      1.943   1_655 S
Zn6    O39     1.929   .     S
Zn6    O48     1.931   .     S
Zn6    O19     1.911   .     S
Zn6    O2      1.943   .     S
Zn7    O45     1.935   .     S
Zn7    O14     1.909   .     S
Zn7    O42     1.936   .     S
Zn7    O3      1.933   .     S
Zn8    O13     1.909   .     S
Zn8    O46     1.935   .     S
Zn8    O41     1.936   .     S
Zn8    O4      1.933   1_565 S
Zn9    O8      1.912   .     S
Zn9    O28     1.931   1_545 S
Zn9    O4      1.941   .     S
Zn9    O35     1.930   .     S
Zn10   O36     1.930   1_545 S
Zn10   O7      1.912   .     S
Zn10   O3      1.941   .     S
Zn10   O27     1.931   .     S
Zn11   O10     1.912   .     S
Zn11   O33     1.937   .     S
Zn11   O2      1.927   .     S
Zn11   O22     1.937   1_455 S
Zn12   O1      1.927   .     S
Zn12   O21     1.937   .     S
Zn12   O9      1.912   .     S
Zn12   O34     1.937   1_455 S
Zn13   O31     1.931   1_545 S
Zn13   O12     1.911   .     S
Zn13   O4      1.943   .     S
Zn13   O24     1.929   .     S
Zn14   O11     1.911   .     S
Zn14   O23     1.929   1_545 S
Zn14   O3      1.943   .     S
Zn14   O32     1.931   .     S
Zn15   O29     1.935   1_455 S
Zn15   O2      1.933   .     S
Zn15   O6      1.909   .     S
Zn15   O26     1.936   .     S
Zn16   O5      1.909   .     S
Zn16   O30     1.935   .     S
Zn16   O1      1.933   .     S
Zn16   O25     1.936   1_455 S
C1     C49     1.414   .     A
C1     C75     1.415   .     A
C1     C12     1.516   .     S
C2     C50     1.415   .     A
C2     C76     1.413   .     A
C2     C11     1.515   .     S
C3     C73     1.414   .     A
C3     C10     1.516   .     S
C3     C51     1.415   .     A
C4     C52     1.413   .     A
C4     C9      1.513   .     S
C4     C74     1.411   .     A
C5     C79     1.415   .     A
C5     C16     1.515   .     S
C5     C53     1.414   .     A
C6     C54     1.411   .     A
C6     C80     1.412   .     A
C6     C15     1.513   .     S
C7     C55     1.415   .     A
C7     C77     1.414   .     A
C7     C14     1.516   .     S
C8     C13     1.513   .     S
C8     C78     1.412   .     A
C8     C56     1.412   .     A
C9     C67     1.413   .     A
C9     C57     1.411   .     A
C10    C58     1.414   .     A
C10    C68     1.415   .     A
C11    C59     1.413   .     A
C11    C65     1.415   .     A
C12    C66     1.414   .     A
C12    C60     1.415   .     A
C13    C61     1.412   .     A
C13    C71     1.412   .     A
C14    C62     1.414   .     A
C14    C72     1.415   .     A
C15    C69     1.411   .     A
C15    C63     1.412   .     A
C16    C70     1.414   .     A
C16    C64     1.415   .     A
O1     Zn5     1.943   1_455 S
O2     Zn2     1.941   1_455 S
O3     Zn3     1.927   1_545 S
O4     Zn8     1.933   1_545 S
O5     C25     1.271   .     S
O6     C26     1.271   1_455 S
O7     C27     1.279   1_545 A
O8     C28     1.279   1_545 A
O9     C25     1.272   .     S
O10    C26     1.272   1_455 S
O11    C27     1.279   1_545 A
O12    C28     1.279   1_545 A
O13    C29     1.271   1_565 S
O14    C30     1.271   1_545 S
O15    C31     1.279   .     A
O16    C32     1.279   .     A
O17    C29     1.272   .     A
O18    C30     1.272   .     A
O19    C31     1.279   1_455 S
O20    C32     1.279   1_655 S
O21    C33     1.269   .     A
O22    C34     1.277   .     A
O22    Zn11    1.937   1_655 S
O23    Zn14    1.929   1_565 S
O23    C35     1.280   .     A
O24    C36     1.281   .     A
O25    C37     1.271   .     A
O25    Zn16    1.936   1_655 S
O26    C38     1.281   .     A
O27    C39     1.281   .     A
O28    C40     1.270   .     A
O28    Zn9     1.931   1_565 S
O29    Zn15    1.935   1_655 S
O29    C41     1.282   .     A
O30    C42     1.271   .     A
O31    Zn13    1.931   1_565 S
O31    C43     1.282   .     A
O32    C44     1.282   .     A
O33    C45     1.279   .     A
O34    C46     1.270   .     A
O34    Zn12    1.937   1_655 S
O35    C47     1.282   .     A
O36    C48     1.280   .     A
O36    Zn10    1.930   1_565 S
O37    C47     1.277   .     A
O38    C48     1.269   .     A
O39    C45     1.281   .     A
O40    C46     1.280   .     A
O41    C43     1.281   .     A
O42    C44     1.271   .     A
O43    C41     1.270   .     A
O44    C42     1.281   .     A
O45    C39     1.271   .     A
O46    C40     1.282   .     A
O47    C37     1.282   .     A
O48    C38     1.282   .     A
O49    C35     1.270   .     A
O50    C36     1.279   .     A
O51    C33     1.280   .     A
O52    C34     1.282   .     A
C17    C32     1.420   .     S
C17    C18     1.197   1_455 S
C18    C31     1.420   .     S
C18    C17     1.197   1_655 S
C19    C30     1.418   .     S
C19    C20     1.196   1_565 S
C20    C29     1.418   .     S
C20    C19     1.196   1_545 S
C21    C28     1.420   .     S
C21    C22     1.197   1_556 S
C22    C27     1.420   .     S
C22    C21     1.197   1_554 S
C23    C26     1.418   .     S
C23    C24     1.196   1_556 S
C24    C25     1.418   1_655 S
C24    C23     1.196   1_554 S
C25    C24     1.418   1_455 S
C26    O6      1.271   1_655 S
C26    O10     1.272   1_655 S
C27    O7      1.279   1_565 A
C27    O11     1.279   1_565 A
C28    O12     1.279   1_565 A
C28    O8      1.279   1_565 A
C29    O13     1.271   1_545 S
C30    O14     1.271   1_565 S
C31    O19     1.279   1_655 S
C32    O20     1.279   1_455 S
C33    C122    1.469   .     S
C34    C121    1.488   .     S
C35    C128    1.470   .     S
C36    C127    1.489   .     S
C37    C126    1.469   .     S
C38    C125    1.489   .     S
C39    C124    1.469   .     S
C40    C123    1.469   .     S
C41    C114    1.469   .     S
C42    C113    1.469   .     S
C43    C120    1.489   .     S
C44    C119    1.469   .     S
C45    C118    1.489   .     S
C46    C117    1.470   .     S
C47    C116    1.488   .     S
C48    C115    1.469   .     S
C49    C81     1.402   .     A
C49    Cl1     1.772   .     S
C50    Cl2     1.773   .     S
C50    C82     1.405   .     A
C51    Cl3     1.773   .     S
C51    C83     1.405   .     A
C52    C84     1.404   .     A
C52    Cl4     1.773   .     S
C53    Cl5     1.772   .     S
C53    C85     1.401   .     A
C54    Cl6     1.773   .     S
C54    C86     1.403   .     A
C55    Cl7     1.773   .     S
C55    C87     1.405   .     A
C56    Cl8     1.773   .     S
C56    C88     1.404   .     A
C57    C89     1.402   .     A
C57    Cl9     1.773   .     S
C58    Cl10    1.772   .     S
C58    C90     1.402   .     A
C59    Cl11    1.772   .     S
C59    C91     1.401   .     A
C60    Cl12    1.773   .     S
C60    C92     1.405   .     A
C61    Cl13    1.773   .     S
C61    C93     1.403   .     A
C62    C94     1.402   .     A
C62    Cl14    1.772   .     S
C63    Cl15    1.773   .     S
C63    C95     1.404   .     A
C64    C96     1.405   .     A
C64    Cl16    1.773   .     S
C65    C97     1.405   .     A
C65    Cl17    1.773   .     S
C66    C98     1.402   .     A
C66    Cl18    1.772   .     S
C67    C99     1.404   .     A
C67    Cl19    1.773   .     S
C68    C100    1.405   .     A
C68    Cl20    1.773   .     S
C69    Cl21    1.773   .     S
C69    C101    1.403   .     A
C70    C102    1.401   .     A
C70    Cl22    1.772   .     S
C71    C103    1.404   .     A
C71    Cl23    1.773   .     S
C72    Cl24    1.773   .     S
C72    C104    1.405   .     A
C73    Cl25    1.772   .     S
C73    C105    1.402   .     A
C74    C106    1.402   .     A
C74    Cl26    1.773   .     S
C75    C107    1.405   .     A
C75    Cl27    1.773   .     S
C76    C108    1.401   .     A
C76    Cl28    1.772   .     S
C77    Cl29    1.772   .     S
C77    C109    1.402   .     A
C78    C110    1.403   .     A
C78    Cl30    1.773   .     S
C79    C111    1.405   .     A
C79    Cl31    1.773   .     S
C80    Cl32    1.773   .     S
C80    C112    1.404   .     A
C81    N1      1.436   .     S
C81    C113    1.414   .     A
C82    N2      1.438   .     S
C82    C114    1.411   .     A
C83    N3      1.438   .     S
C83    C115    1.411   .     A
C84    N4      1.435   .     S
C84    C116    1.418   .     A
C85    N5      1.435   .     S
C85    C117    1.414   .     A
C86    C118    1.419   .     A
C86    N6      1.434   .     S
C87    N7      1.438   .     S
C87    C119    1.411   .     A
C88    N8      1.435   .     S
C88    C120    1.419   .     A
C89    N9      1.434   .     S
C89    C121    1.420   .     A
C90    N10     1.436   .     S
C90    C122    1.414   .     A
C91    N11     1.436   .     S
C91    C123    1.414   .     A
C92    N12     1.438   .     S
C92    C124    1.411   .     A
C93    N13     1.434   .     S
C93    C125    1.419   .     A
C94    C126    1.414   .     A
C94    N14     1.436   .     S
C95    N15     1.435   .     S
C95    C127    1.418   .     A
C96    C128    1.411   .     A
C96    N16     1.438   .     S
C97    N17     1.438   .     S
C97    C123    1.411   .     A
C98    C124    1.414   .     A
C98    N18     1.436   .     S
C99    C121    1.418   .     A
C99    N19     1.435   .     S
C100   C122    1.411   .     A
C100   N20     1.438   .     S
C101   N21     1.434   .     S
C101   C127    1.419   .     A
C102   C128    1.414   .     A
C102   N22     1.435   .     S
C103   C125    1.419   .     A
C103   N23     1.435   .     S
C104   C126    1.411   .     A
C104   N24     1.438   .     S
C105   C115    1.414   .     A
C105   N25     1.436   .     S
C106   C116    1.420   .     A
C106   N26     1.434   .     S
C107   N27     1.438   .     S
C107   C113    1.411   .     A
C108   C114    1.414   .     A
C108   N28     1.436   .     S
C109   C119    1.414   .     A
C109   N29     1.436   .     S
C110   C120    1.419   .     A
C110   N30     1.434   .     S
C111   N31     1.438   .     S
C111   C117    1.412   .     A
C112   C118    1.418   .     A
C112   N32     1.435   .     S
N1     O53     1.301   .     A
N1     O54     1.301   .     A
N2     O56     1.301   .     A
N2     O55     1.301   .     A
N3     O58     1.301   .     A
N3     O57     1.301   .     A
N4     O60     1.301   .     A
N4     O59     1.302   .     A
N5     O61     1.301   .     A
N5     O62     1.301   .     A
N6     O63     1.301   .     A
N6     O64     1.301   .     A
N7     O66     1.301   .     A
N7     O65     1.301   .     A
N8     O68     1.301   .     A
N8     O67     1.301   .     A
N9     O69     1.301   .     A
N9     O70     1.301   .     A
N10    O72     1.301   .     A
N10    O71     1.301   .     A
N11    O74     1.301   .     A
N11    O73     1.301   .     A
N12    O75     1.301   .     A
N12    O76     1.301   .     A
N13    O78     1.301   .     A
N13    O77     1.301   .     A
N14    O79     1.301   .     A
N14    O80     1.301   .     A
N15    O81     1.301   .     A
N15    O82     1.301   .     A
N16    O83     1.301   .     A
N16    O84     1.301   .     A
N17    O85     1.301   .     A
N17    O86     1.301   .     A
N18    O87     1.301   .     A
N18    O88     1.301   .     A
N19    O89     1.302   .     A
N19    O90     1.301   .     A
N20    O92     1.301   .     A
N20    O91     1.301   .     A
N21    O93     1.301   .     A
N21    O94     1.301   .     A
N22    O96     1.301   .     A
N22    O95     1.301   .     A
N23    O98     1.301   .     A
N23    O97     1.301   .     A
N24    O99     1.301   .     A
N24    O100    1.301   .     A
N25    O101    1.301   .     A
N25    O102    1.301   .     A
N26    O104    1.301   .     A
N26    O103    1.301   .     A
N27    O105    1.301   .     A
N27    O106    1.301   .     A
N28    O107    1.301   .     A
N28    O108    1.301   .     A
N29    O110    1.301   .     A
N29    O109    1.301   .     A
N30    O111    1.301   .     A
N30    O112    1.301   .     A
N31    O114    1.301   .     A
N31    O113    1.301   .     A
N32    O116    1.301   .     A
N32    O115    1.301   .     A
