data_str_m1_o2_o5_pcu_sym.6
_audit_creation_date              2020-01-03
_audit_creation_method            'Materials Studio'
_symmetry_space_group_name_H-M    'P1'
_symmetry_Int_Tables_number       1
_symmetry_cell_setting            triclinic
loop_
_symmetry_equiv_pos_as_xyz
  x,y,z
_cell_length_a                    24.4206
_cell_length_b                    24.4206
_cell_length_c                    22.4676
_cell_angle_alpha                 90.0007
_cell_angle_beta                  89.9981
_cell_angle_gamma                 89.9984
loop_
_atom_site_label
_atom_site_type_symbol
_atom_site_fract_x
_atom_site_fract_y
_atom_site_fract_z
_atom_site_U_iso_or_equiv
_atom_site_adp_type
_atom_site_occupancy
C1     C     0.22897   0.27103   0.25000   0.00000  Uiso   1.00
C2     C     0.22899   0.72899   0.25000   0.00000  Uiso   1.00
C3     C     0.20303   0.63342   0.23929   0.00000  Uiso   1.00
C4     C     0.31568   0.15104   0.70173   0.00000  Uiso   1.00
C5     C     0.68396   0.84857   0.29848   0.00000  Uiso   1.00
C6     C     0.20309   0.63338   0.76037   0.00000  Uiso   1.00
C7     C     0.79692   0.36661   0.23957   0.00000  Uiso   1.00
C8     C     0.31568   0.84896   0.29818   0.00000  Uiso   1.00
C9     C     0.70228   0.13375   0.73569   0.00000  Uiso   1.00
C10    C     0.20292   0.36650   0.23860   0.00000  Uiso   1.00
C11    C     0.79719   0.63323   0.76256   0.00000  Uiso   1.00
C12    C     0.68460   0.15074   0.29794   0.00000  Uiso   1.00
C13    C     0.72806   0.77105   0.74980   0.00000  Uiso   1.00
C14    C     0.31547   0.84919   0.70201   0.00000  Uiso   1.00
C15    C     0.79706   0.63348   0.23875   0.00000  Uiso   1.00
C16    C     0.20261   0.36616   0.76204   0.00000  Uiso   1.00
C17    C     0.14769   0.35231   0.25000   0.00000  Uiso   1.00
C18    C     0.85221   0.64747   0.75013   0.00000  Uiso   1.00
C19    C     0.35266   0.85266   0.25000   0.00000  Uiso   1.00
C20    C     0.64756   0.14756   0.75000   0.00000  Uiso   1.00
C21    C     0.85230   0.64769   0.25000   0.00000  Uiso   1.00
C22    C     0.14748   0.35220   0.74987   0.00000  Uiso   1.00
C23    C     0.64734   0.14733   0.25000   0.00000  Uiso   1.00
C24    C     0.27152   0.22847   0.25000   0.00000  Uiso   1.00
C25    C     0.35266   0.85266   0.75000   0.00000  Uiso   1.00
C26    C     0.85261   0.35261   0.75000   0.00000  Uiso   1.00
C27    C     0.14770   0.64770   0.25000   0.00000  Uiso   1.00
C28    C     0.64730   0.85257   0.75002   0.00000  Uiso   1.00
C29    C     0.35264   0.14736   0.25000   0.00000  Uiso   1.00
C30    C     0.14771   0.64771   0.75000   0.00000  Uiso   1.00
C31    C     0.85229   0.35229   0.25000   0.00000  Uiso   1.00
C32    C     0.35258   0.14729   0.74998   0.00000  Uiso   1.00
C33    C     0.64735   0.85265   0.25000   0.00000  Uiso   1.00
C34    C     0.07528   0.28027   0.27429   0.00000  Uiso   1.00
C35    C     0.22900   0.72899   0.75000   0.00000  Uiso   1.00
C36    C     0.92415   0.71932   0.72379   0.00000  Uiso   1.00
C37    C     0.38824   0.81852   0.15012   0.00000  Uiso   1.00
C38    C     0.57604   0.21833   0.78084   0.00000  Uiso   1.00
C39    C     0.92475   0.71978   0.27397   0.00000  Uiso   1.00
C40    C     0.07511   0.28077   0.72331   0.00000  Uiso   1.00
C41    C     0.61115   0.18205   0.15062   0.00000  Uiso   1.00
C42    C     0.38870   0.81808   0.84950   0.00000  Uiso   1.00
C43    C     0.82059   0.38599   0.85159   0.00000  Uiso   1.00
C44    C     0.07511   0.71999   0.27286   0.00000  Uiso   1.00
C45    C     0.61250   0.81928   0.85057   0.00000  Uiso   1.00
C46    C     0.77100   0.27100   0.25000   0.00000  Uiso   1.00
C47    C     0.38719   0.18048   0.14928   0.00000  Uiso   1.00
C48    C     0.07503   0.72010   0.72783   0.00000  Uiso   1.00
C49    C     0.92495   0.27992   0.27231   0.00000  Uiso   1.00
C50    C     0.38795   0.18130   0.84999   0.00000  Uiso   1.00
C51    C     0.61254   0.81925   0.14950   0.00000  Uiso   1.00
C52    C     0.68081   0.88743   0.64960   0.00000  Uiso   1.00
C53    C     0.31952   0.11282   0.35073   0.00000  Uiso   1.00
C54    C     0.88599   0.32059   0.64841   0.00000  Uiso   1.00
C55    C     0.21999   0.57512   0.22715   0.00000  Uiso   1.00
C56    C     0.31880   0.11198   0.64985   0.00000  Uiso   1.00
C57    C     0.27107   0.22806   0.75020   0.00000  Uiso   1.00
C58    C     0.68074   0.88747   0.35049   0.00000  Uiso   1.00
C59    C     0.22010   0.57503   0.77218   0.00000  Uiso   1.00
C60    C     0.77992   0.42495   0.22768   0.00000  Uiso   1.00
C61    C     0.31852   0.88824   0.34988   0.00000  Uiso   1.00
C62    C     0.71833   0.07604   0.71916   0.00000  Uiso   1.00
C63    C     0.21973   0.42471   0.22572   0.00000  Uiso   1.00
C64    C     0.78089   0.57519   0.77728   0.00000  Uiso   1.00
C65    C     0.68205   0.11114   0.34937   0.00000  Uiso   1.00
C66    C     0.31808   0.88871   0.65050   0.00000  Uiso   1.00
C67    C     0.78022   0.57525   0.22602   0.00000  Uiso   1.00
C68    C     0.72846   0.77153   0.25000   0.00000  Uiso   1.00
C69    C     0.21943   0.42423   0.77562   0.00000  Uiso   1.00
C70    C    -0.00000   0.49999   0.47333   0.00000  Uiso   1.00
C71    C    -0.00000   0.49998   0.52667   0.00000  Uiso   1.00
C72    C     0.49999  -0.00000   0.47333   0.00000  Uiso   1.00
C73    C     0.77068   0.72850   0.74984   0.00000  Uiso   1.00
C74    C     0.49998  -0.00000   0.52667   0.00000  Uiso   1.00
C75    C     0.50000   0.99998   0.97333   0.00000  Uiso   1.00
C76    C     0.50000   0.99999   0.02667   0.00000  Uiso   1.00
C77    C     0.99998   0.50000   0.97333   0.00000  Uiso   1.00
C78    C     0.99999   0.50000   0.02667   0.00000  Uiso   1.00
C79    C    -0.00000   0.50000   0.08999   0.00000  Uiso   1.00
C80    C     0.99999   0.50000   0.91001   0.00000  Uiso   1.00
C81    C     0.50000  -0.00000   0.08999   0.00000  Uiso   1.00
C82    C     0.50000   0.99999   0.91001   0.00000  Uiso   1.00
C83    C     0.49999  -0.00000   0.58999   0.00000  Uiso   1.00
C84    C     0.27155   0.77155   0.25000   0.00000  Uiso   1.00
C85    C     0.50000  -0.00000   0.41001   0.00000  Uiso   1.00
C86    C    -0.00000   0.49999   0.58999   0.00000  Uiso   1.00
C87    C    -0.00000   0.50000   0.41001   0.00000  Uiso   1.00
C88    C     0.10517   0.60517   0.25000   0.00000  Uiso   1.00
C89    C     0.89494   0.39494   0.75000   0.00000  Uiso   1.00
C90    C     0.60504   0.89496   0.25000   0.00000  Uiso   1.00
C91    C     0.39495   0.10503   0.74999   0.00000  Uiso   1.00
C92    C     0.89483   0.39483   0.25000   0.00000  Uiso   1.00
C93    C     0.10517   0.60517   0.75000   0.00000  Uiso   1.00
C94    C     0.39496   0.10504   0.25000   0.00000  Uiso   1.00
C95    C     0.72882   0.22882   0.75000   0.00000  Uiso   1.00
C96    C     0.60504   0.89495   0.75001   0.00000  Uiso   1.00
C97    C     0.89481   0.60510   0.75005   0.00000  Uiso   1.00
C98    C     0.10516   0.39483   0.25000   0.00000  Uiso   1.00
C99    C     0.39496   0.89496   0.75000   0.00000  Uiso   1.00
C100   C     0.60503   0.10503   0.25000   0.00000  Uiso   1.00
C101   C     0.10511   0.39481   0.74995   0.00000  Uiso   1.00
C102   C     0.89483   0.60517   0.25000   0.00000  Uiso   1.00
C103   C     0.60512   0.10512   0.75000   0.00000  Uiso   1.00
C104   C     0.39496   0.89496   0.25000   0.00000  Uiso   1.00
C105   C     0.17448   0.25708   0.26166   0.00000  Uiso   1.00
C106   C     0.77102   0.72897   0.25000   0.00000  Uiso   1.00
C107   C     0.82503   0.74243   0.73734   0.00000  Uiso   1.00
C108   C     0.30846   0.77520   0.20250   0.00000  Uiso   1.00
C109   C     0.67472   0.24231   0.76439   0.00000  Uiso   1.00
C110   C     0.82553   0.74294   0.26152   0.00000  Uiso   1.00
C111   C     0.17407   0.25698   0.73775   0.00000  Uiso   1.00
C112   C     0.69125   0.22507   0.20274   0.00000  Uiso   1.00
C113   C     0.30868   0.77498   0.79731   0.00000  Uiso   1.00
C114   C     0.77627   0.30722   0.79840   0.00000  Uiso   1.00
C115   C     0.17441   0.74304   0.26098   0.00000  Uiso   1.00
C116   C     0.69163   0.77525   0.79769   0.00000  Uiso   1.00
C117   C     0.22851   0.27068   0.75016   0.00000  Uiso   1.00
C118   C     0.30794   0.22433   0.20210   0.00000  Uiso   1.00
C119   C     0.17437   0.74308   0.73936   0.00000  Uiso   1.00
C120   C     0.82562   0.25692   0.26069   0.00000  Uiso   1.00
C121   C     0.30789   0.22432   0.79778   0.00000  Uiso   1.00
C122   C     0.69192   0.77554   0.20221   0.00000  Uiso   1.00
C123   C     0.72408   0.80764   0.70203   0.00000  Uiso   1.00
C124   C     0.27566   0.19206   0.29789   0.00000  Uiso   1.00
C125   C     0.80722   0.27627   0.70161   0.00000  Uiso   1.00
C126   C     0.24303   0.67441   0.23902   0.00000  Uiso   1.00
C127   C     0.27503   0.19138   0.70250   0.00000  Uiso   1.00
C128   C     0.72844   0.22844   0.25000   0.00000  Uiso   1.00
C129   C     0.72445   0.80807   0.29779   0.00000  Uiso   1.00
C130   C     0.24309   0.67437   0.76064   0.00000  Uiso   1.00
C131   C     0.75692   0.32562   0.23931   0.00000  Uiso   1.00
C132   C     0.27520   0.80846   0.29750   0.00000  Uiso   1.00
C133   C     0.74231   0.17472   0.73562   0.00000  Uiso   1.00
C134   C     0.24292   0.32551   0.23833   0.00000  Uiso   1.00
C135   C     0.75703   0.67410   0.76255   0.00000  Uiso   1.00
C136   C     0.72507   0.19125   0.29727   0.00000  Uiso   1.00
C137   C     0.27499   0.80868   0.70268   0.00000  Uiso   1.00
C138   C     0.75705   0.67447   0.23849   0.00000  Uiso   1.00
C139   C     0.27155   0.77155   0.75000   0.00000  Uiso   1.00
C140   C     0.24249   0.32507   0.76236   0.00000  Uiso   1.00
C141   C     0.13349   0.29708   0.26140   0.00000  Uiso   1.00
C142   C     0.86612   0.70255   0.73766   0.00000  Uiso   1.00
C143   C     0.34896   0.81568   0.20182   0.00000  Uiso   1.00
C144   C     0.63374   0.20228   0.76431   0.00000  Uiso   1.00
C145   C     0.86652   0.70294   0.26125   0.00000  Uiso   1.00
C146   C     0.13320   0.29714   0.73774   0.00000  Uiso   1.00
C147   C     0.65074   0.18460   0.20206   0.00000  Uiso   1.00
C148   C     0.34919   0.81547   0.79799   0.00000  Uiso   1.00
C149   C     0.81672   0.34777   0.79904   0.00000  Uiso   1.00
C150   C     0.77143   0.27143   0.75000   0.00000  Uiso   1.00
C151   C     0.13342   0.70304   0.26071   0.00000  Uiso   1.00
C152   C     0.65130   0.81592   0.79847   0.00000  Uiso   1.00
C153   C     0.34843   0.18383   0.20142   0.00000  Uiso   1.00
C154   C     0.13338   0.70308   0.73963   0.00000  Uiso   1.00
C155   C     0.86661   0.29692   0.26044   0.00000  Uiso   1.00
C156   C     0.34863   0.18406   0.79831   0.00000  Uiso   1.00
C157   C     0.65143   0.81604   0.20152   0.00000  Uiso   1.00
C158   C     0.68382   0.84837   0.70149   0.00000  Uiso   1.00
C159   C     0.31617   0.15157   0.29859   0.00000  Uiso   1.00
C160   C     0.84777   0.31672   0.70097   0.00000  Uiso   1.00
H1     H     0.16393   0.21468   0.27020   0.00000  Uiso   1.00
H2     H     0.16379   0.78551   0.26897   0.00000  Uiso   1.00
H3     H     0.21315   0.54998   0.73171   0.00000  Uiso   1.00
H4     H     0.26419   0.57194   0.78387   0.00000  Uiso   1.00
H5     H     0.80401   0.44196   0.19006   0.00000  Uiso   1.00
H6     H     0.73584   0.42804   0.21595   0.00000  Uiso   1.00
H7     H     0.78685   0.45002   0.26813   0.00000  Uiso   1.00
H8     H     0.35856   0.88404   0.37282   0.00000  Uiso   1.00
H9     H     0.31387   0.93092   0.33359   0.00000  Uiso   1.00
H10    H     0.28567   0.88031   0.38297   0.00000  Uiso   1.00
H11    H     0.71208   0.04833   0.75771   0.00000  Uiso   1.00
H12    H     0.69311   0.06169   0.68110   0.00000  Uiso   1.00
H13    H     0.69520   0.74712   0.83480   0.00000  Uiso   1.00
H14    H     0.76207   0.07333   0.70588   0.00000  Uiso   1.00
H15    H     0.21307   0.45026   0.26587   0.00000  Uiso   1.00
H16    H     0.26371   0.42771   0.21353   0.00000  Uiso   1.00
H17    H     0.19530   0.44123   0.18810   0.00000  Uiso   1.00
H18    H     0.78775   0.54832   0.73815   0.00000  Uiso   1.00
H19    H     0.80547   0.56000   0.81545   0.00000  Uiso   1.00
H20    H     0.73695   0.57220   0.78965   0.00000  Uiso   1.00
H21    H     0.64212   0.11517   0.37258   0.00000  Uiso   1.00
H22    H     0.68665   0.06857   0.33274   0.00000  Uiso   1.00
H23    H     0.71507   0.11889   0.38232   0.00000  Uiso   1.00
H24    H     0.30426   0.25242   0.16496   0.00000  Uiso   1.00
H25    H     0.35804   0.88464   0.62736   0.00000  Uiso   1.00
H26    H     0.28510   0.88092   0.61752   0.00000  Uiso   1.00
H27    H     0.31347   0.93131   0.66705   0.00000  Uiso   1.00
H28    H     0.78693   0.54976   0.26620   0.00000  Uiso   1.00
H29    H     0.73622   0.57223   0.21391   0.00000  Uiso   1.00
H30    H     0.80458   0.55866   0.18839   0.00000  Uiso   1.00
H31    H     0.21305   0.45014   0.73569   0.00000  Uiso   1.00
H32    H     0.19479   0.44048   0.81322   0.00000  Uiso   1.00
H33    H     0.26334   0.42707   0.78816   0.00000  Uiso   1.00
H34    H     0.16372   0.78558   0.73162   0.00000  Uiso   1.00
H35    H     0.83627   0.21443   0.26847   0.00000  Uiso   1.00
H36    H     0.30441   0.25258   0.83478   0.00000  Uiso   1.00
H37    H     0.69551   0.74736   0.16515   0.00000  Uiso   1.00
H38    H     0.75217   0.80397   0.66488   0.00000  Uiso   1.00
H39    H     0.24757   0.19574   0.33503   0.00000  Uiso   1.00
H40    H     0.80304   0.24875   0.66404   0.00000  Uiso   1.00
H41    H     0.83541   0.78474   0.72811   0.00000  Uiso   1.00
H42    H     0.28550   0.66379   0.23103   0.00000  Uiso   1.00
H43    H     0.24671   0.19477   0.66553   0.00000  Uiso   1.00
H44    H     0.75263   0.80449   0.33485   0.00000  Uiso   1.00
H45    H     0.28559   0.66372   0.76837   0.00000  Uiso   1.00
H46    H     0.71443   0.33627   0.23154   0.00000  Uiso   1.00
H47    H     0.24673   0.80516   0.33434   0.00000  Uiso   1.00
H48    H     0.78436   0.16444   0.72496   0.00000  Uiso   1.00
H49    H     0.28531   0.33606   0.22980   0.00000  Uiso   1.00
H50    H     0.71478   0.66353   0.77185   0.00000  Uiso   1.00
H51    H     0.75374   0.19434   0.33395   0.00000  Uiso   1.00
H52    H     0.30516   0.74674   0.16566   0.00000  Uiso   1.00
H53    H     0.24636   0.80555   0.66597   0.00000  Uiso   1.00
H54    H     0.71464   0.66390   0.23007   0.00000  Uiso   1.00
H55    H     0.28483   0.33549   0.77135   0.00000  Uiso   1.00
H56    H     0.04973   0.28694   0.23415   0.00000  Uiso   1.00
H57    H     0.07228   0.23629   0.28647   0.00000  Uiso   1.00
H58    H     0.05877   0.30469   0.31192   0.00000  Uiso   1.00
H59    H     0.95019   0.71303   0.76362   0.00000  Uiso   1.00
H60    H     0.94025   0.69457   0.68620   0.00000  Uiso   1.00
H61    H     0.92696   0.76319   0.71109   0.00000  Uiso   1.00
H62    H     0.43092   0.81387   0.16642   0.00000  Uiso   1.00
H63    H     0.66443   0.28437   0.77505   0.00000  Uiso   1.00
H64    H     0.38032   0.78567   0.11703   0.00000  Uiso   1.00
H65    H     0.38404   0.85856   0.12718   0.00000  Uiso   1.00
H66    H     0.54833   0.21208   0.74229   0.00000  Uiso   1.00
H67    H     0.56169   0.19311   0.81890   0.00000  Uiso   1.00
H68    H     0.57332   0.26207   0.79413   0.00000  Uiso   1.00
H69    H     0.95022   0.71308   0.23378   0.00000  Uiso   1.00
H70    H     0.92776   0.76378   0.28609   0.00000  Uiso   1.00
H71    H     0.94135   0.69541   0.31159   0.00000  Uiso   1.00
H72    H     0.04838   0.28772   0.76253   0.00000  Uiso   1.00
H73    H     0.05977   0.30525   0.68513   0.00000  Uiso   1.00
H74    H     0.83609   0.78535   0.26993   0.00000  Uiso   1.00
H75    H     0.07210   0.23680   0.71109   0.00000  Uiso   1.00
H76    H     0.56857   0.18665   0.16725   0.00000  Uiso   1.00
H77    H     0.61890   0.21507   0.11768   0.00000  Uiso   1.00
H78    H     0.61518   0.14212   0.12742   0.00000  Uiso   1.00
H79    H     0.43131   0.81348   0.83295   0.00000  Uiso   1.00
H80    H     0.38463   0.85804   0.87264   0.00000  Uiso   1.00
H81    H     0.38091   0.78510   0.88248   0.00000  Uiso   1.00
H82    H     0.81565   0.42899   0.83644   0.00000  Uiso   1.00
H83    H     0.78836   0.37741   0.88522   0.00000  Uiso   1.00
H84    H     0.86104   0.38130   0.87353   0.00000  Uiso   1.00
H85    H     0.16346   0.21470   0.72869   0.00000  Uiso   1.00
H86    H     0.05823   0.69580   0.31047   0.00000  Uiso   1.00
H87    H     0.07205   0.76404   0.28473   0.00000  Uiso   1.00
H88    H     0.04991   0.71314   0.23249   0.00000  Uiso   1.00
H89    H     0.56965   0.81473   0.83477   0.00000  Uiso   1.00
H90    H     0.62057   0.78660   0.88382   0.00000  Uiso   1.00
H91    H     0.61711   0.85944   0.87316   0.00000  Uiso   1.00
H92    H     0.38271   0.14025   0.12680   0.00000  Uiso   1.00
H93    H     0.37896   0.21305   0.11594   0.00000  Uiso   1.00
H94    H     0.43004   0.18523   0.16501   0.00000  Uiso   1.00
H95    H     0.05797   0.69604   0.69021   0.00000  Uiso   1.00
H96    H     0.69434   0.25374   0.16606   0.00000  Uiso   1.00
H97    H     0.04999   0.71316   0.76830   0.00000  Uiso   1.00
H98    H     0.07194   0.76418   0.71613   0.00000  Uiso   1.00
H99    H     0.95002   0.28685   0.23186   0.00000  Uiso   1.00
H100   H     0.94197   0.30401   0.30993   0.00000  Uiso   1.00
H101   H     0.92804   0.23584   0.28404   0.00000  Uiso   1.00
H102   H     0.38399   0.14118   0.87280   0.00000  Uiso   1.00
H103   H     0.43059   0.18625   0.83368   0.00000  Uiso   1.00
H104   H     0.37985   0.21402   0.88319   0.00000  Uiso   1.00
H105   H     0.61695   0.85943   0.12690   0.00000  Uiso   1.00
H106   H     0.62068   0.78661   0.11623   0.00000  Uiso   1.00
H107   H     0.30555   0.74636   0.83402   0.00000  Uiso   1.00
H108   H     0.56974   0.81454   0.16538   0.00000  Uiso   1.00
H109   H     0.64060   0.88333   0.62701   0.00000  Uiso   1.00
H110   H     0.68580   0.93016   0.66563   0.00000  Uiso   1.00
H111   H     0.71340   0.87919   0.61628   0.00000  Uiso   1.00
H112   H     0.35975   0.11730   0.37320   0.00000  Uiso   1.00
H113   H     0.28695   0.12104   0.38406   0.00000  Uiso   1.00
H114   H     0.31478   0.06997   0.33500   0.00000  Uiso   1.00
H115   H     0.88130   0.36104   0.62647   0.00000  Uiso   1.00
H116   H     0.92899   0.31565   0.66356   0.00000  Uiso   1.00
H117   H     0.87741   0.28837   0.61478   0.00000  Uiso   1.00
H118   H     0.74874   0.30304   0.83597   0.00000  Uiso   1.00
H119   H     0.19580   0.55822   0.18954   0.00000  Uiso   1.00
H120   H     0.26404   0.57205   0.21528   0.00000  Uiso   1.00
H121   H     0.21314   0.54992   0.26753   0.00000  Uiso   1.00
H122   H     0.35887   0.11644   0.62703   0.00000  Uiso   1.00
H123   H     0.31429   0.06922   0.66592   0.00000  Uiso   1.00
H124   H     0.28598   0.11991   0.61671   0.00000  Uiso   1.00
H125   H     0.64056   0.88306   0.37310   0.00000  Uiso   1.00
H126   H     0.71339   0.87932   0.38376   0.00000  Uiso   1.00
H127   H     0.68546   0.93027   0.33461   0.00000  Uiso   1.00
H128   H     0.19604   0.55798   0.80980   0.00000  Uiso   1.00
O1     O    -0.00000   0.50000   0.25000   0.00000  Uiso   1.00
O2     O     0.00000   0.45454   0.88202   0.00000  Uiso   1.00
O3     O     0.54546   0.00000   0.11798   0.00000  Uiso   1.00
O4     O     0.45454   0.00000   0.88202   0.00000  Uiso   1.00
O5     O     0.50000   0.95454   0.61798   0.00000  Uiso   1.00
O6     O     0.50000   0.04546   0.38202   0.00000  Uiso   1.00
O7     O     0.95454   0.50000   0.61798   0.00000  Uiso   1.00
O8     O     0.04546   0.50000   0.38202   0.00000  Uiso   1.00
O9     O     0.50000   0.04546   0.61798   0.00000  Uiso   1.00
O10    O     0.50000   0.95454   0.38202   0.00000  Uiso   1.00
O11    O     0.04546   0.50000   0.61798   0.00000  Uiso   1.00
O12    O     0.00000   0.50000   0.75000   0.00000  Uiso   1.00
O13    O     0.95454   0.50000   0.38202   0.00000  Uiso   1.00
O14    O     0.06399   0.60947   0.21539   0.00000  Uiso   1.00
O15    O     0.93601   0.39053   0.78461   0.00000  Uiso   1.00
O16    O     0.60947   0.93601   0.21539   0.00000  Uiso   1.00
O17    O     0.39053   0.06399   0.78461   0.00000  Uiso   1.00
O18    O     0.93601   0.39053   0.21539   0.00000  Uiso   1.00
O19    O     0.06399   0.60947   0.78461   0.00000  Uiso   1.00
O20    O     0.39053   0.06399   0.21539   0.00000  Uiso   1.00
O21    O     0.60947   0.93601   0.78461   0.00000  Uiso   1.00
O22    O     0.93601   0.60947   0.78461   0.00000  Uiso   1.00
O23    O     0.50000   0.00000   0.25000   0.00000  Uiso   1.00
O24    O     0.06399   0.39053   0.21539   0.00000  Uiso   1.00
O25    O     0.39053   0.93601   0.78461   0.00000  Uiso   1.00
O26    O     0.60947   0.06399   0.21539   0.00000  Uiso   1.00
O27    O     0.06399   0.39053   0.78461   0.00000  Uiso   1.00
O28    O     0.93601   0.60947   0.21539   0.00000  Uiso   1.00
O29    O     0.60947   0.06399   0.78461   0.00000  Uiso   1.00
O30    O     0.39053   0.93601   0.21539   0.00000  Uiso   1.00
O31    O     0.56399   0.10947   0.71539   0.00000  Uiso   1.00
O32    O     0.43601   0.89053   0.28461   0.00000  Uiso   1.00
O33    O     0.10947   0.43601   0.71539   0.00000  Uiso   1.00
O34    O     0.50000   0.00000   0.75000   0.00000  Uiso   1.00
O35    O     0.89053   0.56399   0.28461   0.00000  Uiso   1.00
O36    O     0.43601   0.89053   0.71539   0.00000  Uiso   1.00
O37    O     0.56399   0.10947   0.28461   0.00000  Uiso   1.00
O38    O     0.89053   0.56399   0.71539   0.00000  Uiso   1.00
O39    O     0.10947   0.43601   0.28461   0.00000  Uiso   1.00
O40    O     0.43601   0.10947   0.28461   0.00000  Uiso   1.00
O41    O     0.56399   0.89053   0.71539   0.00000  Uiso   1.00
O42    O     0.89053   0.43601   0.28461   0.00000  Uiso   1.00
O43    O     0.10947   0.56399   0.71539   0.00000  Uiso   1.00
O44    O     0.56399   0.89053   0.28461   0.00000  Uiso   1.00
O45    O    -0.00000   0.45454   0.11798   0.00000  Uiso   1.00
O46    O     0.43601   0.10947   0.71539   0.00000  Uiso   1.00
O47    O     0.10947   0.56399   0.28461   0.00000  Uiso   1.00
O48    O     0.89053   0.43601   0.71539   0.00000  Uiso   1.00
O49    O     0.00000   0.54546   0.88202   0.00000  Uiso   1.00
O50    O     0.45454   0.00000   0.11798   0.00000  Uiso   1.00
O51    O     0.54546   0.00000   0.88202   0.00000  Uiso   1.00
O52    O    -0.00000   0.54546   0.11798   0.00000  Uiso   1.00
Zn1    Zn    0.06497   0.50000   0.29947   0.00000  Uiso   1.00
Zn2    Zn    0.43503   0.00000   0.20053   0.00000  Uiso   1.00
Zn3    Zn    0.00000   0.43503   0.79947   0.00000  Uiso   1.00
Zn4    Zn   -0.00000   0.56497   0.20053   0.00000  Uiso   1.00
Zn5    Zn    0.43503   0.00000   0.79947   0.00000  Uiso   1.00
Zn6    Zn    0.56497   0.00000   0.20053   0.00000  Uiso   1.00
Zn7    Zn    0.00000   0.56497   0.79947   0.00000  Uiso   1.00
Zn8    Zn   -0.00000   0.43503   0.20053   0.00000  Uiso   1.00
Zn9    Zn    0.93503   0.50000   0.70053   0.00000  Uiso   1.00
Zn10   Zn    0.50000   0.93503   0.29947   0.00000  Uiso   1.00
Zn11   Zn    0.50000   0.06497   0.70053   0.00000  Uiso   1.00
Zn12   Zn    0.93503   0.50000   0.29947   0.00000  Uiso   1.00
Zn13   Zn    0.06497   0.50000   0.70053   0.00000  Uiso   1.00
Zn14   Zn    0.50000   0.06497   0.29947   0.00000  Uiso   1.00
Zn15   Zn    0.50000   0.93503   0.70053   0.00000  Uiso   1.00
Zn16   Zn    0.56497   0.00000   0.79947   0.00000  Uiso   1.00
loop_
_geom_bond_atom_site_label_1
_geom_bond_atom_site_label_2
_geom_bond_distance
_geom_bond_site_symmetry_2
_ccdc_geom_bond_type
C1     C105    1.398   .     A
C1     C24     1.470   .     S
C1     C134    1.398   .     A
C2     C84     1.470   .     S
C2     C115    1.398   .     A
C2     C126    1.398   .     A
C3     C55     1.508   .     S
C3     C27     1.416   .     A
C3     C126    1.399   .     A
C4     C56     1.508   .     S
C4     C32     1.413   .     A
C4     C127    1.399   .     A
C5     C58     1.508   .     S
C5     C33     1.413   .     A
C5     C129    1.399   .     A
C6     C30     1.416   .     A
C6     C130    1.399   .     A
C6     C59     1.508   .     S
C7     C131    1.399   .     A
C7     C60     1.508   .     S
C7     C31     1.416   .     A
C8     C19     1.413   .     A
C8     C132    1.399   .     A
C8     C61     1.508   .     S
C9     C133    1.399   .     A
C9     C20     1.415   .     A
C9     C62     1.509   .     S
C10    C63     1.508   .     S
C10    C17     1.416   .     A
C10    C134    1.399   .     A
C11    C18     1.416   .     A
C11    C135    1.399   .     A
C11    C64     1.509   .     S
C12    C23     1.412   .     A
C12    C136    1.399   .     A
C12    C65     1.508   .     S
C13    C73     1.471   .     S
C13    C123    1.400   .     A
C13    C116    1.400   .     A
C14    C137    1.399   .     A
C14    C25     1.412   .     A
C14    C66     1.508   .     S
C15    C67     1.508   .     S
C15    C138    1.399   .     A
C15    C21     1.416   .     A
C16    C22     1.415   .     A
C16    C140    1.398   .     A
C16    C69     1.508   .     S
C17    C98     1.469   .     S
C17    C141    1.416   .     A
C18    C97     1.467   .     S
C18    C142    1.415   .     A
C19    C104    1.461   .     S
C19    C143    1.413   .     A
C20    C144    1.415   .     A
C20    C103    1.466   .     S
C21    C102    1.469   .     S
C21    C145    1.416   .     A
C22    C146    1.416   .     A
C22    C101    1.467   .     S
C23    C100    1.461   .     S
C23    C147    1.412   .     A
C24    C124    1.400   .     A
C24    C118    1.400   .     A
C25    C99     1.461   .     S
C25    C148    1.412   .     A
C26    C160    1.413   .     A
C26    C149    1.413   .     A
C26    C89     1.462   .     S
C27    C151    1.416   .     A
C27    C88     1.469   .     S
C28    C158    1.412   .     A
C28    C96     1.462   .     S
C28    C152    1.413   .     A
C29    C94     1.461   .     S
C29    C159    1.413   .     A
C29    C153    1.413   .     A
C30    C154    1.416   .     A
C30    C93     1.469   .     S
C31    C155    1.416   .     A
C31    C92     1.469   .     S
C32    C156    1.412   .     A
C32    C91     1.461   .     S
C33    C157    1.413   .     A
C33    C90     1.461   .     S
C34    H57     1.111   .     S
C34    H56     1.109   .     S
C34    C141    1.508   .     S
C34    H58     1.110   .     S
C35    C139    1.470   .     S
C35    C130    1.398   .     A
C35    C119    1.398   .     A
C36    C142    1.508   .     S
C36    H59     1.109   .     S
C36    H61     1.111   .     S
C36    H60     1.110   .     S
C37    H65     1.110   .     S
C37    C143    1.508   .     S
C37    H62     1.111   .     S
C37    H64     1.111   .     S
C38    H66     1.110   .     S
C38    H67     1.111   .     S
C38    H68     1.111   .     S
C38    C144    1.509   .     S
C39    H69     1.109   .     S
C39    C145    1.508   .     S
C39    H70     1.111   .     S
C39    H71     1.110   .     S
C40    H72     1.110   .     S
C40    H73     1.110   .     S
C40    H75     1.111   .     S
C40    C146    1.509   .     S
C41    H78     1.110   .     S
C41    H77     1.111   .     S
C41    H76     1.111   .     S
C41    C147    1.508   .     S
C42    H80     1.110   .     S
C42    C148    1.508   .     S
C42    H79     1.111   .     S
C42    H81     1.111   .     S
C43    H84     1.110   .     S
C43    H82     1.111   .     S
C43    H83     1.111   .     S
C43    C149    1.508   .     S
C44    H87     1.111   .     S
C44    H86     1.110   .     S
C44    H88     1.109   .     S
C44    C151    1.508   .     S
C45    H89     1.111   .     S
C45    H91     1.110   .     S
C45    C152    1.508   .     S
C45    H90     1.111   .     S
C46    C120    1.398   .     A
C46    C128    1.470   .     S
C46    C131    1.398   .     A
C47    C153    1.508   .     S
C47    H94     1.111   .     S
C47    H93     1.111   .     S
C47    H92     1.110   .     S
C48    H98     1.111   .     S
C48    H95     1.110   .     S
C48    C154    1.508   .     S
C48    H97     1.109   .     S
C49    H100    1.110   .     S
C49    C155    1.508   .     S
C49    H99     1.109   .     S
C49    H101    1.111   .     S
C50    H104    1.111   .     S
C50    H103    1.111   .     S
C50    H102    1.110   .     S
C50    C156    1.508   .     S
C51    C157    1.508   .     S
C51    H105    1.110   .     S
C51    H108    1.110   .     S
C51    H106    1.111   .     S
C52    H110    1.111   .     S
C52    C158    1.508   .     S
C52    H109    1.110   .     S
C52    H111    1.111   .     S
C53    H114    1.111   .     S
C53    C159    1.508   .     S
C53    H112    1.110   .     S
C53    H113    1.111   .     S
C54    H116    1.111   .     S
C54    H117    1.111   .     S
C54    C160    1.508   .     S
C54    H115    1.110   .     S
C55    H119    1.110   .     S
C55    H121    1.109   .     S
C55    H120    1.111   .     S
C56    H123    1.111   .     S
C56    H122    1.110   .     S
C56    H124    1.111   .     S
C57    C127    1.400   .     A
C57    C117    1.471   .     S
C57    C121    1.400   .     A
C58    H126    1.111   .     S
C58    H127    1.111   .     S
C58    H125    1.110   .     S
C59    H4      1.111   .     S
C59    H128    1.110   .     S
C59    H3      1.109   .     S
C60    H5      1.110   .     S
C60    H7      1.109   .     S
C60    H6      1.111   .     S
C61    H9      1.111   .     S
C61    H8      1.110   .     S
C61    H10     1.111   .     S
C62    H11     1.110   .     S
C62    H14     1.111   .     S
C62    H12     1.111   .     S
C63    H16     1.111   .     S
C63    H15     1.109   .     S
C63    H17     1.110   .     S
C64    H19     1.111   .     S
C64    H18     1.110   .     S
C64    H20     1.111   .     S
C65    H22     1.111   .     S
C65    H23     1.111   .     S
C65    H21     1.110   .     S
C66    H26     1.111   .     S
C66    H27     1.111   .     S
C66    H25     1.110   .     S
C67    H30     1.110   .     S
C67    H28     1.109   .     S
C67    H29     1.111   .     S
C68    C122    1.400   .     A
C68    C129    1.400   .     A
C68    C106    1.470   .     S
C69    H31     1.109   .     S
C69    H32     1.110   .     S
C69    H33     1.111   .     S
C70    C87     1.423   .     S
C70    C71     1.198   .     T
C71    C86     1.423   .     S
C72    C85     1.423   .     S
C72    C74     1.198   .     T
C73    C135    1.399   .     A
C73    C107    1.399   .     A
C74    C83     1.423   .     S
C75    C82     1.423   .     S
C75    C76     1.198   1_556 S
C76    C81     1.423   1_565 S
C76    C75     1.198   1_554 S
C77    C80     1.423   .     S
C77    C78     1.198   1_556 S
C78    C79     1.423   1_655 S
C78    C77     1.198   1_554 S
C79    O45     1.276   .     A
C79    C78     1.423   1_455 S
C79    O52     1.276   .     A
C80    O2      1.276   1_655 S
C80    O49     1.276   1_655 S
C81    C76     1.423   1_545 S
C81    O3      1.276   .     S
C81    O50     1.276   .     S
C82    O4      1.276   1_565 S
C82    O51     1.276   1_565 S
C83    O5      1.276   1_545 A
C83    O9      1.276   .     S
C84    C132    1.400   .     A
C84    C108    1.400   .     A
C85    O10     1.276   1_545 A
C85    O6      1.276   .     S
C86    O7      1.276   1_455 A
C86    O11     1.276   .     S
C87    O13     1.276   1_455 A
C87    O8      1.276   .     S
C88    O14     1.276   .     A
C88    O47     1.276   .     A
C89    O15     1.274   .     A
C89    O48     1.274   .     A
C90    O16     1.273   .     A
C90    O44     1.273   .     A
C91    O17     1.273   .     A
C91    O46     1.273   .     A
C92    O18     1.276   .     A
C92    O42     1.276   .     A
C93    O19     1.276   .     A
C93    O43     1.276   .     A
C94    O20     1.273   .     A
C94    O40     1.273   .     A
C95    C109    1.399   .     A
C95    C133    1.399   .     A
C95    C150    1.472   .     S
C96    O21     1.273   .     A
C96    O41     1.273   .     A
C97    O22     1.275   .     A
C97    O38     1.275   .     A
C98    O39     1.275   .     A
C98    O24     1.275   .     A
C99    O36     1.273   .     A
C99    O25     1.273   .     A
C100   O37     1.273   .     A
C100   O26     1.273   .     A
C101   O27     1.275   .     A
C101   O33     1.275   .     A
C102   O28     1.275   .     A
C102   O35     1.275   .     A
C103   O31     1.275   .     A
C103   O29     1.275   .     A
C104   O30     1.273   .     A
C104   O32     1.273   .     A
C105   H1      1.084   .     S
C105   C141    1.399   .     A
C106   C138    1.398   .     A
C106   C110    1.398   .     A
C107   H41     1.084   .     S
C107   C142    1.398   .     A
C108   H52     1.084   .     S
C108   C143    1.399   .     A
C109   C144    1.399   .     A
C109   H63     1.084   .     S
C110   C145    1.399   .     A
C110   H74     1.084   .     S
C111   C146    1.399   .     A
C111   C117    1.399   .     A
C111   H85     1.084   .     S
C112   H96     1.084   .     S
C112   C147    1.399   .     A
C112   C128    1.400   .     A
C113   H107    1.084   .     S
C113   C148    1.399   .     A
C113   C139    1.400   .     A
C114   C150    1.400   .     A
C114   C149    1.399   .     A
C114   H118    1.084   .     S
C115   C151    1.399   .     A
C115   H2      1.084   .     S
C116   H13     1.084   .     S
C116   C152    1.399   .     A
C117   C140    1.399   .     A
C118   C153    1.399   .     A
C118   H24     1.084   .     S
C119   C154    1.399   .     A
C119   H34     1.084   .     S
C120   C155    1.399   .     A
C120   H35     1.084   .     S
C121   C156    1.399   .     A
C121   H36     1.084   .     S
C122   C157    1.399   .     A
C122   H37     1.084   .     S
C123   H38     1.084   .     S
C123   C158    1.399   .     A
C124   H39     1.084   .     S
C124   C159    1.399   .     A
C125   H40     1.084   .     S
C125   C160    1.399   .     A
C125   C150    1.400   .     A
C126   H42     1.084   .     S
C127   H43     1.084   .     S
C128   C136    1.400   .     A
C129   H44     1.084   .     S
C130   H45     1.084   .     S
C131   H46     1.084   .     S
C132   H47     1.084   .     S
C133   H48     1.084   .     S
C134   H49     1.084   .     S
C135   H50     1.084   .     S
C136   H51     1.084   .     S
C137   C139    1.400   .     A
C137   H53     1.084   .     S
C138   H54     1.084   .     S
C140   H55     1.084   .     S
O1     Zn4     1.937   .     S
O1     Zn8     1.937   .     S
O1     Zn12    1.937   1_455 S
O1     Zn1     1.937   .     S
O2     Zn3     1.915   .     S
O2     C80     1.276   1_455 S
O3     Zn6     1.915   .     S
O4     Zn5     1.915   .     S
O4     C82     1.276   1_545 S
O5     Zn15    1.915   .     S
O5     C83     1.276   1_565 A
O6     Zn14    1.915   .     S
O7     C86     1.276   1_655 A
O7     Zn9     1.915   .     S
O8     Zn1     1.915   .     S
O9     Zn11    1.915   .     S
O10    Zn10    1.915   .     S
O10    C85     1.276   1_565 A
O11    Zn13    1.915   .     S
O12    Zn3     1.937   .     S
O12    Zn7     1.937   .     S
O12    Zn13    1.937   .     S
O12    Zn9     1.937   1_455 S
O13    C87     1.276   1_655 A
O13    Zn12    1.915   .     S
O14    Zn4     1.932   .     S
O15    Zn3     1.932   1_655 S
O16    Zn6     1.932   1_565 S
O17    Zn5     1.932   .     S
O18    Zn8     1.932   1_655 S
O19    Zn7     1.932   .     S
O20    Zn2     1.932   .     S
O21    Zn16    1.932   1_565 S
O22    Zn7     1.932   1_655 S
O23    Zn2     1.937   .     S
O23    Zn14    1.937   .     S
O23    Zn6     1.937   .     S
O23    Zn10    1.937   1_545 S
O24    Zn8     1.932   .     S
O25    Zn5     1.932   1_565 S
O26    Zn6     1.932   .     S
O27    Zn3     1.932   .     S
O28    Zn4     1.932   1_655 S
O29    Zn16    1.932   .     S
O30    Zn2     1.932   1_565 S
O31    Zn11    1.932   .     S
O32    Zn10    1.932   .     S
O33    Zn13    1.932   .     S
O34    Zn5     1.937   .     S
O34    Zn16    1.937   .     S
O34    Zn11    1.937   .     S
O34    Zn15    1.937   1_545 S
O35    Zn12    1.932   .     S
O36    Zn15    1.932   .     S
O37    Zn14    1.932   .     S
O38    Zn9     1.932   .     S
O39    Zn1     1.932   .     S
O40    Zn14    1.932   .     S
O41    Zn15    1.932   .     S
O42    Zn12    1.932   .     S
O43    Zn13    1.932   .     S
O44    Zn10    1.932   .     S
O45    Zn8     1.915   .     S
O46    Zn11    1.932   .     S
O47    Zn1     1.932   .     S
O48    Zn9     1.932   .     S
O49    Zn7     1.915   .     S
O49    C80     1.276   1_455 S
O50    Zn2     1.915   .     S
O51    Zn16    1.915   .     S
O51    C82     1.276   1_545 S
O52    Zn4     1.915   .     S
Zn2    O30     1.932   1_545 S
Zn3    O15     1.932   1_455 S
Zn4    O28     1.932   1_455 S
Zn5    O25     1.932   1_545 S
Zn6    O16     1.932   1_545 S
Zn7    O22     1.932   1_455 S
Zn8    O18     1.932   1_455 S
Zn9    O12     1.937   1_655 S
Zn10   O23     1.937   1_565 S
Zn12   O1      1.937   1_655 S
Zn15   O34     1.937   1_565 S
Zn16   O21     1.932   1_545 S
