data_str_m1_o2_o5_pcu_sym.19
_audit_creation_date              2020-01-03
_audit_creation_method            'Materials Studio'
_symmetry_space_group_name_H-M    'P1'
_symmetry_Int_Tables_number       1
_symmetry_cell_setting            triclinic
loop_
_symmetry_equiv_pos_as_xyz
  x,y,z
_cell_length_a                    24.4137
_cell_length_b                    24.4136
_cell_length_c                    22.4545
_cell_angle_alpha                 90.0282
_cell_angle_beta                  89.9720
_cell_angle_gamma                 89.9160
loop_
_atom_site_label
_atom_site_type_symbol
_atom_site_fract_x
_atom_site_fract_y
_atom_site_fract_z
_atom_site_U_iso_or_equiv
_atom_site_adp_type
_atom_site_occupancy
Br1    Br    0.05925   0.27373   0.26770   0.00000  Uiso   1.00
Br2    Br    0.15905   0.62461   0.12277   0.00000  Uiso   1.00
Br3    Br    0.63206   0.84800   0.87938   0.00000  Uiso   1.00
Br4    Br    0.37656   0.15934   0.12280   0.00000  Uiso   1.00
Br5    Br    0.06357   0.72684   0.79126   0.00000  Uiso   1.00
Br6    Br    0.92046   0.29818   0.33881   0.00000  Uiso   1.00
Br7    Br    0.36753   0.15213   0.87922   0.00000  Uiso   1.00
Br8    Br    0.62432   0.84028   0.12316   0.00000  Uiso   1.00
Br9    Br    0.65215   0.86754   0.62078   0.00000  Uiso   1.00
Br10   Br    0.34027   0.12432   0.37684   0.00000  Uiso   1.00
Br11   Br    0.87696   0.33954   0.62331   0.00000  Uiso   1.00
Br12   Br    0.93596   0.71918   0.70024   0.00000  Uiso   1.00
Br13   Br    0.12461   0.65905   0.37723   0.00000  Uiso   1.00
Br14   Br    0.34801   0.13207   0.62062   0.00000  Uiso   1.00
Br15   Br    0.65934   0.87655   0.37720   0.00000  Uiso   1.00
Br16   Br    0.22684   0.56357   0.70875   0.00000  Uiso   1.00
Br17   Br    0.79818   0.42047   0.16120   0.00000  Uiso   1.00
Br18   Br    0.44104   0.77521   0.22417   0.00000  Uiso   1.00
Br19   Br    0.55882   0.22504   0.77443   0.00000  Uiso   1.00
Br20   Br    0.22545   0.44222   0.22998   0.00000  Uiso   1.00
Br21   Br    0.78036   0.56216   0.79675   0.00000  Uiso   1.00
Br22   Br    0.63560   0.15123   0.38039   0.00000  Uiso   1.00
Br23   Br    0.27521   0.94104   0.27583   0.00000  Uiso   1.00
Br24   Br    0.35219   0.86370   0.61988   0.00000  Uiso   1.00
Br25   Br    0.77371   0.55923   0.23242   0.00000  Uiso   1.00
Br26   Br    0.21917   0.43595   0.79978   0.00000  Uiso   1.00
Br27   Br    0.72504   0.05882   0.72557   0.00000  Uiso   1.00
Br28   Br    0.94222   0.72547   0.26989   0.00000  Uiso   1.00
Br29   Br    0.06216   0.28037   0.70322   0.00000  Uiso   1.00
Br30   Br    0.65122   0.13560   0.11960   0.00000  Uiso   1.00
Br31   Br    0.36370   0.85218   0.88012   0.00000  Uiso   1.00
Br32   Br    0.83954   0.37696   0.87669   0.00000  Uiso   1.00
C1     C     0.22959   0.27185   0.24943   0.00000  Uiso   1.00
C2     C     0.22873   0.72873   0.25000   0.00000  Uiso   1.00
C3     C     0.16144   0.67463   0.30340   0.00000  Uiso   1.00
C4     C     0.32830   0.16451   0.69579   0.00000  Uiso   1.00
C5     C     0.67510   0.83942   0.30355   0.00000  Uiso   1.00
C6     C     0.20259   0.63568   0.73176   0.00000  Uiso   1.00
C7     C     0.80664   0.35860   0.21327   0.00000  Uiso   1.00
C8     C     0.36674   0.79715   0.24015   0.00000  Uiso   1.00
C9     C     0.63322   0.20294   0.75924   0.00000  Uiso   1.00
C10    C     0.20338   0.36744   0.24241   0.00000  Uiso   1.00
C11    C     0.79904   0.63433   0.76914   0.00000  Uiso   1.00
C12    C     0.66410   0.17301   0.30397   0.00000  Uiso   1.00
C13    C     0.72835   0.77054   0.75012   0.00000  Uiso   1.00
C14    C     0.33076   0.83357   0.69560   0.00000  Uiso   1.00
C15    C     0.79692   0.63371   0.24381   0.00000  Uiso   1.00
C16    C     0.20055   0.36475   0.76953   0.00000  Uiso   1.00
C17    C     0.14792   0.35259   0.24954   0.00000  Uiso   1.00
C18    C     0.85242   0.64722   0.75003   0.00000  Uiso   1.00
C19    C     0.35242   0.85241   0.25000   0.00000  Uiso   1.00
C20    C     0.64760   0.14760   0.75000   0.00000  Uiso   1.00
C21    C     0.85259   0.64792   0.25046   0.00000  Uiso   1.00
C22    C     0.14722   0.35242   0.74997   0.00000  Uiso   1.00
C23    C     0.64789   0.14789   0.25000   0.00000  Uiso   1.00
C24    C     0.27221   0.22952   0.24963   0.00000  Uiso   1.00
C25    C     0.35260   0.85260   0.75000   0.00000  Uiso   1.00
C26    C     0.85245   0.35245   0.75000   0.00000  Uiso   1.00
C27    C     0.14757   0.64757   0.25000   0.00000  Uiso   1.00
C28    C     0.64752   0.85222   0.75007   0.00000  Uiso   1.00
C29    C     0.35269   0.14774   0.24983   0.00000  Uiso   1.00
C30    C     0.14823   0.64823   0.75000   0.00000  Uiso   1.00
C31    C     0.85287   0.35287   0.25000   0.00000  Uiso   1.00
C32    C     0.35222   0.14752   0.74993   0.00000  Uiso   1.00
C33    C     0.64774   0.85269   0.25017   0.00000  Uiso   1.00
C34    C     0.22951   0.72951   0.75000   0.00000  Uiso   1.00
C35    C     0.77187   0.27187   0.25000   0.00000  Uiso   1.00
C36    C     0.27054   0.22835   0.74988   0.00000  Uiso   1.00
C37    C     0.72952   0.77220   0.25036   0.00000  Uiso   1.00
C38    C    -0.00001   0.49999   0.47332   0.00000  Uiso   1.00
C39    C     0.00001   0.49999   0.52667   0.00000  Uiso   1.00
C40    C     0.50000   0.00001   0.47333   0.00000  Uiso   1.00
C41    C     0.77100   0.72807   0.75015   0.00000  Uiso   1.00
C42    C     0.49999   0.99999   0.52667   0.00000  Uiso   1.00
C43    C     0.49999  -0.00001   0.97332   0.00000  Uiso   1.00
C44    C     0.50001   0.00000   0.02667   0.00000  Uiso   1.00
C45    C     0.99999   0.50001   0.97333   0.00000  Uiso   1.00
C46    C    -0.00001   0.49999   0.02667   0.00000  Uiso   1.00
C47    C     0.00000   0.49999   0.08999   0.00000  Uiso   1.00
C48    C     0.99999   0.50001   0.91001   0.00000  Uiso   1.00
C49    C     0.50001   0.00001   0.08999   0.00000  Uiso   1.00
C50    C     0.49999   0.99999   0.91001   0.00000  Uiso   1.00
C51    C     0.49999  -0.00001   0.58999   0.00000  Uiso   1.00
C52    C     0.27125   0.77125   0.25000   0.00000  Uiso   1.00
C53    C     0.50001   0.00001   0.41001   0.00000  Uiso   1.00
C54    C     0.00001   0.49999   0.58999   0.00000  Uiso   1.00
C55    C    -0.00001   0.50000   0.41001   0.00000  Uiso   1.00
C56    C     0.10517   0.60517   0.25000   0.00000  Uiso   1.00
C57    C     0.89484   0.39483   0.75000   0.00000  Uiso   1.00
C58    C     0.60517   0.89487   0.25001   0.00000  Uiso   1.00
C59    C     0.39479   0.10518   0.75000   0.00000  Uiso   1.00
C60    C     0.89498   0.39498   0.25000   0.00000  Uiso   1.00
C61    C     0.10543   0.60543   0.75000   0.00000  Uiso   1.00
C62    C     0.39487   0.10517   0.24999   0.00000  Uiso   1.00
C63    C     0.72878   0.22878   0.75000   0.00000  Uiso   1.00
C64    C     0.60518   0.89479   0.75000   0.00000  Uiso   1.00
C65    C     0.89488   0.60509   0.74999   0.00000  Uiso   1.00
C66    C     0.10523   0.39483   0.24992   0.00000  Uiso   1.00
C67    C     0.39488   0.89488   0.75000   0.00000  Uiso   1.00
C68    C     0.60530   0.10530   0.25000   0.00000  Uiso   1.00
C69    C     0.10509   0.39488   0.75001   0.00000  Uiso   1.00
C70    C     0.89483   0.60523   0.25008   0.00000  Uiso   1.00
C71    C     0.60518   0.10518   0.75000   0.00000  Uiso   1.00
C72    C     0.39482   0.89482   0.25000   0.00000  Uiso   1.00
C73    C     0.17464   0.25694   0.25644   0.00000  Uiso   1.00
C74    C     0.77184   0.72959   0.25057   0.00000  Uiso   1.00
C75    C     0.82407   0.74077   0.73077   0.00000  Uiso   1.00
C76    C     0.25693   0.82608   0.26001   0.00000  Uiso   1.00
C77    C     0.74317   0.17387   0.74061   0.00000  Uiso   1.00
C78    C     0.82696   0.74388   0.25775   0.00000  Uiso   1.00
C79    C     0.17483   0.25858   0.73076   0.00000  Uiso   1.00
C80    C     0.71396   0.20393   0.19655   0.00000  Uiso   1.00
C81    C     0.29304   0.79061   0.80404   0.00000  Uiso   1.00
C82    C     0.78423   0.29889   0.80288   0.00000  Uiso   1.00
C83    C     0.21517   0.70178   0.19692   0.00000  Uiso   1.00
C84    C     0.70480   0.78764   0.80392   0.00000  Uiso   1.00
C85    C     0.22807   0.27100   0.74985   0.00000  Uiso   1.00
C86    C     0.29941   0.21602   0.19669   0.00000  Uiso   1.00
C87    C     0.17650   0.74249   0.76836   0.00000  Uiso   1.00
C88    C     0.81850   0.26597   0.28604   0.00000  Uiso   1.00
C89    C     0.29417   0.21151   0.80371   0.00000  Uiso   1.00
C90    C     0.70227   0.78515   0.19733   0.00000  Uiso   1.00
C91    C     0.71152   0.79417   0.69629   0.00000  Uiso   1.00
C92    C     0.28515   0.20227   0.30267   0.00000  Uiso   1.00
C93    C     0.79889   0.28423   0.69711   0.00000  Uiso   1.00
C94    C     0.20178   0.71517   0.30308   0.00000  Uiso   1.00
C95    C     0.28765   0.20480   0.69608   0.00000  Uiso   1.00
C96    C     0.72926   0.22927   0.25000   0.00000  Uiso   1.00
C97    C     0.71602   0.79940   0.30331   0.00000  Uiso   1.00
C98    C     0.24249   0.67650   0.73164   0.00000  Uiso   1.00
C99    C     0.76597   0.31851   0.21396   0.00000  Uiso   1.00
C100   C     0.32608   0.75693   0.23999   0.00000  Uiso   1.00
C101   C     0.67387   0.24317   0.75939   0.00000  Uiso   1.00
C102   C     0.24388   0.32696   0.24219   0.00000  Uiso   1.00
C103   C     0.75858   0.67483   0.76923   0.00000  Uiso   1.00
C104   C     0.70393   0.21396   0.30345   0.00000  Uiso   1.00
C105   C     0.29061   0.79304   0.69596   0.00000  Uiso   1.00
C106   C     0.75693   0.67463   0.24362   0.00000  Uiso   1.00
C107   C     0.27175   0.77175   0.75000   0.00000  Uiso   1.00
C108   C     0.24077   0.32407   0.76924   0.00000  Uiso   1.00
C109   C     0.13372   0.29693   0.25624   0.00000  Uiso   1.00
C110   C     0.86475   0.70055   0.73048   0.00000  Uiso   1.00
C111   C     0.29716   0.86673   0.25985   0.00000  Uiso   1.00
C112   C     0.70294   0.13322   0.74076   0.00000  Uiso   1.00
C113   C     0.86744   0.70339   0.25753   0.00000  Uiso   1.00
C114   C     0.13433   0.29904   0.73085   0.00000  Uiso   1.00
C115   C     0.67301   0.16410   0.19602   0.00000  Uiso   1.00
C116   C     0.33357   0.83076   0.80440   0.00000  Uiso   1.00
C117   C     0.82477   0.33923   0.80320   0.00000  Uiso   1.00
C118   C     0.77130   0.27130   0.75000   0.00000  Uiso   1.00
C119   C     0.17463   0.66144   0.19660   0.00000  Uiso   1.00
C120   C     0.66450   0.82829   0.80421   0.00000  Uiso   1.00
C121   C     0.33943   0.17510   0.19645   0.00000  Uiso   1.00
C122   C     0.13569   0.70259   0.76824   0.00000  Uiso   1.00
C123   C     0.85860   0.30664   0.28673   0.00000  Uiso   1.00
C124   C     0.33490   0.17132   0.80404   0.00000  Uiso   1.00
C125   C     0.66161   0.82541   0.19689   0.00000  Uiso   1.00
C126   C     0.67132   0.83490   0.69596   0.00000  Uiso   1.00
C127   C     0.32542   0.16161   0.30310   0.00000  Uiso   1.00
C128   C     0.83923   0.32477   0.69680   0.00000  Uiso   1.00
F1     F     0.16094   0.20337   0.26314   0.00000  Uiso   1.00
F2     F     0.24118   0.71510   0.14543   0.00000  Uiso   1.00
F3     F     0.72145   0.76504   0.85616   0.00000  Uiso   1.00
F4     F     0.28659   0.24242   0.14529   0.00000  Uiso   1.00
F5     F     0.16438   0.79453   0.78546   0.00000  Uiso   1.00
F6     F     0.82529   0.22037   0.31991   0.00000  Uiso   1.00
F7     F     0.27728   0.23406   0.85593   0.00000  Uiso   1.00
F8     F     0.71549   0.75865   0.14606   0.00000  Uiso   1.00
F9     F     0.73407   0.77729   0.64407   0.00000  Uiso   1.00
F10    F     0.25866   0.21549   0.35394   0.00000  Uiso   1.00
F11    F     0.78619   0.25761   0.64580   0.00000  Uiso   1.00
F12    F     0.83624   0.79238   0.71248   0.00000  Uiso   1.00
F13    F     0.21510   0.74118   0.35457   0.00000  Uiso   1.00
F14    F     0.26505   0.22146   0.64383   0.00000  Uiso   1.00
F15    F     0.74241   0.78658   0.35471   0.00000  Uiso   1.00
F16    F     0.29453   0.66437   0.71454   0.00000  Uiso   1.00
F17    F     0.72037   0.32530   0.18009   0.00000  Uiso   1.00
F18    F     0.33995   0.70372   0.23048   0.00000  Uiso   1.00
F19    F     0.65993   0.29645   0.76828   0.00000  Uiso   1.00
F20    F     0.29727   0.34122   0.23528   0.00000  Uiso   1.00
F21    F     0.70698   0.66225   0.78724   0.00000  Uiso   1.00
F22    F     0.71779   0.23921   0.35524   0.00000  Uiso   1.00
F23    F     0.20372   0.83995   0.26952   0.00000  Uiso   1.00
F24    F     0.26912   0.77495   0.64373   0.00000  Uiso   1.00
F25    F     0.70335   0.66093   0.23697   0.00000  Uiso   1.00
F26    F     0.29238   0.33624   0.78753   0.00000  Uiso   1.00
F27    F     0.79645   0.15993   0.73172   0.00000  Uiso   1.00
F28    F     0.84123   0.79728   0.26461   0.00000  Uiso   1.00
F29    F     0.16226   0.20698   0.71274   0.00000  Uiso   1.00
F30    F     0.73921   0.21779   0.14476   0.00000  Uiso   1.00
F31    F     0.27495   0.76912   0.85627   0.00000  Uiso   1.00
F32    F     0.75762   0.28619   0.85419   0.00000  Uiso   1.00
O1     O     0.00000   0.50000   0.25000   0.00000  Uiso   1.00
O2     O     0.00000   0.45454   0.88202   0.00000  Uiso   1.00
O3     O     0.54546  -0.00000   0.11798   0.00000  Uiso   1.00
O4     O     0.45454  -0.00000   0.88202   0.00000  Uiso   1.00
O5     O     0.50000   0.95454   0.61798   0.00000  Uiso   1.00
O6     O     0.50000   0.04546   0.38202   0.00000  Uiso   1.00
O7     O     0.95454   0.50000   0.61798   0.00000  Uiso   1.00
O8     O     0.04546   0.50000   0.38202   0.00000  Uiso   1.00
O9     O     0.50000   0.04546   0.61798   0.00000  Uiso   1.00
O10    O     0.50000   0.95454   0.38202   0.00000  Uiso   1.00
O11    O     0.04546   0.50000   0.61798   0.00000  Uiso   1.00
O12    O     0.00000   0.50000   0.75000   0.00000  Uiso   1.00
O13    O     0.95454   0.50000   0.38202   0.00000  Uiso   1.00
O14    O     0.06399   0.60947   0.21539   0.00000  Uiso   1.00
O15    O     0.93601   0.39053   0.78461   0.00000  Uiso   1.00
O16    O     0.60947   0.93601   0.21539   0.00000  Uiso   1.00
O17    O     0.39053   0.06399   0.78461   0.00000  Uiso   1.00
O18    O     0.93601   0.39053   0.21539   0.00000  Uiso   1.00
O19    O     0.06399   0.60947   0.78461   0.00000  Uiso   1.00
O20    O     0.39053   0.06399   0.21539   0.00000  Uiso   1.00
O21    O     0.60947   0.93601   0.78461   0.00000  Uiso   1.00
O22    O     0.93601   0.60947   0.78461   0.00000  Uiso   1.00
O23    O     0.50000  -0.00000   0.25000   0.00000  Uiso   1.00
O24    O     0.06399   0.39053   0.21539   0.00000  Uiso   1.00
O25    O     0.39053   0.93601   0.78461   0.00000  Uiso   1.00
O26    O     0.60947   0.06399   0.21539   0.00000  Uiso   1.00
O27    O     0.06399   0.39053   0.78461   0.00000  Uiso   1.00
O28    O     0.93601   0.60947   0.21539   0.00000  Uiso   1.00
O29    O     0.60947   0.06399   0.78461   0.00000  Uiso   1.00
O30    O     0.39053   0.93601   0.21539   0.00000  Uiso   1.00
O31    O     0.56399   0.10947   0.71539   0.00000  Uiso   1.00
O32    O     0.43601   0.89053   0.28461   0.00000  Uiso   1.00
O33    O     0.10947   0.43601   0.71539   0.00000  Uiso   1.00
O34    O     0.50000  -0.00000   0.75000   0.00000  Uiso   1.00
O35    O     0.89053   0.56399   0.28461   0.00000  Uiso   1.00
O36    O     0.43601   0.89053   0.71539   0.00000  Uiso   1.00
O37    O     0.56399   0.10947   0.28461   0.00000  Uiso   1.00
O38    O     0.89053   0.56399   0.71539   0.00000  Uiso   1.00
O39    O     0.10947   0.43601   0.28461   0.00000  Uiso   1.00
O40    O     0.43601   0.10947   0.28461   0.00000  Uiso   1.00
O41    O     0.56399   0.89053   0.71539   0.00000  Uiso   1.00
O42    O     0.89053   0.43601   0.28461   0.00000  Uiso   1.00
O43    O     0.10947   0.56399   0.71539   0.00000  Uiso   1.00
O44    O     0.56399   0.89053   0.28461   0.00000  Uiso   1.00
O45    O     0.00000   0.45454   0.11798   0.00000  Uiso   1.00
O46    O     0.43601   0.10947   0.71539   0.00000  Uiso   1.00
O47    O     0.10947   0.56399   0.28461   0.00000  Uiso   1.00
O48    O     0.89053   0.43601   0.71539   0.00000  Uiso   1.00
O49    O     0.00000   0.54546   0.88202   0.00000  Uiso   1.00
O50    O     0.45454  -0.00000   0.11798   0.00000  Uiso   1.00
O51    O     0.54546  -0.00000   0.88202   0.00000  Uiso   1.00
O52    O     0.00000   0.54546   0.11798   0.00000  Uiso   1.00
Zn1    Zn    0.06497   0.50000   0.29947   0.00000  Uiso   1.00
Zn2    Zn    0.43503  -0.00000   0.20053   0.00000  Uiso   1.00
Zn3    Zn    0.00000   0.43503   0.79947   0.00000  Uiso   1.00
Zn4    Zn    0.00000   0.56497   0.20053   0.00000  Uiso   1.00
Zn5    Zn    0.43503  -0.00000   0.79947   0.00000  Uiso   1.00
Zn6    Zn    0.56497  -0.00000   0.20053   0.00000  Uiso   1.00
Zn7    Zn    0.00000   0.56497   0.79947   0.00000  Uiso   1.00
Zn8    Zn    0.00000   0.43503   0.20053   0.00000  Uiso   1.00
Zn9    Zn    0.93503   0.50000   0.70053   0.00000  Uiso   1.00
Zn10   Zn    0.50000   0.93503   0.29947   0.00000  Uiso   1.00
Zn11   Zn    0.50000   0.06497   0.70053   0.00000  Uiso   1.00
Zn12   Zn    0.93503   0.50000   0.29947   0.00000  Uiso   1.00
Zn13   Zn    0.06497   0.50000   0.70053   0.00000  Uiso   1.00
Zn14   Zn    0.50000   0.06497   0.29947   0.00000  Uiso   1.00
Zn15   Zn    0.50000   0.93503   0.70053   0.00000  Uiso   1.00
Zn16   Zn    0.56497  -0.00000   0.79947   0.00000  Uiso   1.00
loop_
_geom_bond_atom_site_label_1
_geom_bond_atom_site_label_2
_geom_bond_distance
_geom_bond_site_symmetry_2
_ccdc_geom_bond_type
Br1    C109    1.922   .     S
Br2    C119    1.924   .     S
Br3    C120    1.925   .     S
Br4    C121    1.924   .     S
Br5    C122    1.927   .     S
Br6    C123    1.921   .     S
Br7    C124    1.925   .     S
Br8    C125    1.924   .     S
Br9    C126    1.925   .     S
Br10   C127    1.924   .     S
Br11   C128    1.924   .     S
Br12   C110    1.921   .     S
Br13   C3      1.924   .     S
Br14   C4      1.925   .     S
Br15   C5      1.924   .     S
Br16   C6      1.927   .     S
Br17   C7      1.921   .     S
Br18   C8      1.924   .     S
Br19   C9      1.924   .     S
Br20   C10     1.925   .     S
Br21   C11     1.924   .     S
Br22   C12     1.927   .     S
Br23   C111    1.924   .     S
Br24   C14     1.925   .     S
Br25   C15     1.922   .     S
Br26   C16     1.921   .     S
Br27   C112    1.924   .     S
Br28   C113    1.925   .     S
Br29   C114    1.924   .     S
Br30   C115    1.927   .     S
Br31   C116    1.925   .     S
Br32   C117    1.924   .     S
C1     C102    1.400   .     A
C1     C73     1.399   .     A
C1     C24     1.465   .     S
C2     C94     1.401   .     A
C2     C52     1.469   .     S
C2     C83     1.401   .     A
C3     C27     1.410   .     A
C3     C94     1.397   .     A
C4     C95     1.396   .     A
C4     C32     1.411   .     A
C5     C33     1.410   .     A
C5     C97     1.396   .     A
C6     C98     1.394   .     A
C6     C30     1.422   .     A
C7     C31     1.405   .     A
C7     C99     1.395   .     A
C8     C100    1.397   .     A
C8     C19     1.410   .     A
C9     C101    1.397   .     A
C9     C20     1.411   .     A
C10    C102    1.397   .     A
C10    C17     1.411   .     A
C11    C103    1.397   .     A
C11    C18     1.408   .     A
C12    C104    1.396   .     A
C12    C23     1.415   .     A
C13    C41     1.468   .     S
C13    C91     1.401   .     A
C13    C84     1.401   .     A
C14    C105    1.394   .     A
C14    C25     1.412   .     A
C15    C106    1.396   .     A
C15    C21     1.411   .     A
C16    C22     1.407   .     A
C16    C108    1.396   .     A
C17    C66     1.465   .     S
C17    C109    1.411   .     A
C18    C65     1.459   .     S
C18    C110    1.407   .     A
C19    C111    1.410   .     A
C19    C72     1.465   .     S
C20    C71     1.466   .     S
C20    C112    1.411   .     A
C21    C70     1.465   .     S
C21    C113    1.411   .     A
C22    C69     1.459   .     S
C22    C114    1.408   .     A
C23    C68     1.472   .     S
C23    C115    1.415   .     A
C24    C92     1.401   .     A
C24    C86     1.400   .     A
C25    C67     1.461   .     S
C25    C116    1.412   .     A
C26    C117    1.410   .     A
C26    C57     1.464   .     S
C26    C128    1.410   .     A
C27    C56     1.465   .     S
C27    C119    1.410   .     A
C28    C126    1.411   .     A
C28    C120    1.411   .     A
C28    C64     1.465   .     S
C29    C127    1.410   .     A
C29    C62     1.462   .     S
C29    C121    1.410   .     A
C30    C122    1.422   .     A
C30    C61     1.479   .     S
C31    C60     1.455   .     S
C31    C123    1.405   .     A
C32    C124    1.411   .     A
C32    C59     1.465   .     S
C33    C58     1.462   .     S
C33    C125    1.410   .     A
C34    C98     1.394   .     A
C34    C87     1.394   .     A
C34    C107    1.459   .     S
C35    C88     1.404   .     A
C35    C99     1.404   .     A
C35    C96     1.472   .     S
C36    C85     1.468   .     S
C36    C95     1.401   .     A
C36    C89     1.401   .     A
C37    C90     1.400   .     A
C37    C74     1.465   .     S
C37    C97     1.400   .     A
C38    C55     1.422   .     S
C38    C39     1.198   .     S
C39    C54     1.422   .     S
C40    C53     1.422   .     S
C40    C42     1.198   1_545 S
C41    C103    1.402   .     A
C41    C75     1.402   .     A
C42    C51     1.422   1_565 S
C42    C40     1.198   1_565 S
C43    C50     1.422   1_545 S
C43    C44     1.198   1_556 S
C44    C49     1.422   .     S
C44    C43     1.198   1_554 S
C45    C48     1.422   .     S
C45    C46     1.198   1_656 S
C46    C45     1.198   1_454 S
C46    C47     1.422   .     S
C47    O45     1.276   .     A
C47    O52     1.275   .     S
C48    O2      1.275   1_655 S
C48    O49     1.276   1_655 S
C49    O3      1.276   .     S
C49    O50     1.275   .     S
C50    C43     1.422   1_565 S
C50    O4      1.276   1_565 S
C50    O51     1.275   1_565 S
C51    C42     1.422   1_545 S
C51    O5      1.276   1_545 A
C51    O9      1.275   .     S
C52    C100    1.401   .     A
C52    C76     1.401   .     A
C53    O6      1.276   .     A
C53    O10     1.275   1_545 S
C54    O11     1.276   .     A
C54    O7      1.275   1_455 S
C55    O13     1.276   1_455 A
C55    O8      1.275   .     S
C56    O47     1.275   .     A
C56    O14     1.275   .     A
C57    O15     1.275   .     A
C57    O48     1.275   .     A
C58    O16     1.275   .     A
C58    O44     1.275   .     A
C59    O17     1.276   .     A
C59    O46     1.276   .     A
C60    O18     1.272   .     A
C60    O42     1.272   .     A
C61    O43     1.279   .     A
C61    O19     1.279   .     A
C62    O20     1.275   .     A
C62    O40     1.275   .     A
C63    C101    1.401   .     A
C63    C77     1.401   .     A
C63    C118    1.469   .     S
C64    O41     1.276   .     A
C64    O21     1.276   .     A
C65    O38     1.273   .     A
C65    O22     1.275   .     A
C66    O24     1.276   .     A
C66    O39     1.276   .     A
C67    O25     1.274   .     A
C67    O36     1.274   .     A
C68    O37     1.277   .     A
C68    O26     1.277   .     A
C69    O33     1.275   .     A
C69    O27     1.273   .     A
C70    O28     1.276   .     A
C70    O35     1.276   .     A
C71    O31     1.275   .     A
C71    O29     1.275   .     A
C72    O30     1.275   .     A
C72    O32     1.275   .     A
C73    C109    1.396   .     A
C73    F1      1.359   .     S
C74    C106    1.399   .     A
C74    C78     1.400   .     A
C75    F12     1.359   .     S
C75    C110    1.396   .     A
C76    F23     1.359   .     S
C76    C111    1.397   .     A
C77    F27     1.359   .     S
C77    C112    1.397   .     A
C78    F28     1.359   .     S
C78    C113    1.397   .     A
C79    C85     1.402   .     A
C79    C114    1.397   .     A
C79    F29     1.359   .     S
C80    F30     1.359   .     S
C80    C115    1.396   .     A
C80    C96     1.401   .     A
C81    C116    1.394   .     A
C81    C107    1.398   .     A
C81    F31     1.359   .     S
C82    F32     1.359   .     S
C82    C118    1.401   .     A
C82    C117    1.397   .     A
C83    F2      1.359   .     S
C83    C119    1.397   .     A
C84    F3      1.359   .     S
C84    C120    1.396   .     A
C85    C108    1.402   .     A
C86    C121    1.396   .     A
C86    F4      1.359   .     S
C87    F5      1.359   .     S
C87    C122    1.394   .     A
C88    F6      1.359   .     S
C88    C123    1.395   .     A
C89    C124    1.396   .     A
C89    F7      1.359   .     S
C90    F8      1.359   .     S
C90    C125    1.396   .     A
C91    F9      1.359   .     S
C91    C126    1.396   .     A
C92    C127    1.396   .     A
C92    F10     1.359   .     S
C93    C128    1.397   .     A
C93    F11     1.359   .     S
C93    C118    1.401   .     A
C94    F13     1.359   .     S
C95    F14     1.359   .     S
C96    C104    1.401   .     A
C97    F15     1.359   .     S
C98    F16     1.359   .     S
C99    F17     1.359   .     S
C100   F18     1.359   .     S
C101   F19     1.359   .     S
C102   F20     1.359   .     S
C103   F21     1.359   .     S
C104   F22     1.359   .     S
C105   F24     1.359   .     S
C105   C107    1.398   .     A
C106   F25     1.359   .     S
C108   F26     1.359   .     S
O1     Zn12    1.936   1_455 S
O1     Zn1     1.937   .     S
O1     Zn4     1.937   .     S
O1     Zn8     1.936   .     S
O2     C48     1.275   1_455 S
O2     Zn3     1.914   .     S
O3     Zn6     1.914   .     S
O4     Zn5     1.914   .     S
O4     C50     1.276   1_545 S
O5     C51     1.276   1_565 A
O5     Zn15    1.914   .     S
O6     Zn14    1.914   .     S
O7     Zn9     1.914   .     S
O7     C54     1.275   1_655 S
O8     Zn1     1.914   .     S
O9     Zn11    1.914   .     S
O10    Zn10    1.914   .     S
O10    C53     1.275   1_565 S
O11    Zn13    1.914   .     S
O12    Zn13    1.936   .     S
O12    Zn3     1.937   .     S
O12    Zn7     1.936   .     S
O12    Zn9     1.937   1_455 S
O13    Zn12    1.914   .     S
O13    C55     1.276   1_655 A
O14    Zn4     1.933   .     S
O15    Zn3     1.933   1_655 S
O16    Zn6     1.931   1_565 S
O17    Zn5     1.931   .     S
O18    Zn8     1.933   1_655 S
O19    Zn7     1.933   .     S
O20    Zn2     1.930   .     S
O21    Zn16    1.930   1_565 S
O22    Zn7     1.931   1_655 S
O23    Zn6     1.936   .     S
O23    Zn14    1.936   .     S
O23    Zn2     1.937   .     S
O23    Zn10    1.937   1_545 S
O24    Zn8     1.931   .     S
O25    Zn5     1.933   1_565 S
O26    Zn6     1.933   .     S
O27    Zn3     1.930   .     S
O28    Zn4     1.930   1_655 S
O29    Zn16    1.933   .     S
O30    Zn2     1.933   1_565 S
O31    Zn11    1.933   .     S
O32    Zn10    1.933   .     S
O33    Zn13    1.931   .     S
O34    Zn5     1.936   .     S
O34    Zn16    1.937   .     S
O34    Zn11    1.937   .     S
O34    Zn15    1.936   1_545 S
O35    Zn12    1.931   .     S
O36    Zn15    1.933   .     S
O37    Zn14    1.933   .     S
O38    Zn9     1.930   .     S
O39    Zn1     1.930   .     S
O40    Zn14    1.931   .     S
O41    Zn15    1.931   .     S
O42    Zn12    1.933   .     S
O43    Zn13    1.933   .     S
O44    Zn10    1.930   .     S
O45    Zn8     1.914   .     S
O46    Zn11    1.930   .     S
O47    Zn1     1.933   .     S
O48    Zn9     1.933   .     S
O49    C48     1.276   1_455 S
O49    Zn7     1.914   .     S
O50    Zn2     1.914   .     S
O51    Zn16    1.914   .     S
O51    C50     1.275   1_545 S
O52    Zn4     1.914   .     S
Zn2    O30     1.933   1_545 S
Zn3    O15     1.933   1_455 S
Zn4    O28     1.930   1_455 S
Zn5    O25     1.933   1_545 S
Zn6    O16     1.931   1_545 S
Zn7    O22     1.931   1_455 S
Zn8    O18     1.933   1_455 S
Zn9    O12     1.937   1_655 S
Zn10   O23     1.937   1_565 S
Zn12   O1      1.936   1_655 S
Zn15   O34     1.936   1_565 S
Zn16   O21     1.930   1_545 S
