data_str_m1_o2_o5_pcu_sym.3
_audit_creation_date              2020-01-03
_audit_creation_method            'Materials Studio'
_symmetry_space_group_name_H-M    'P1'
_symmetry_Int_Tables_number       1
_symmetry_cell_setting            triclinic
loop_
_symmetry_equiv_pos_as_xyz
  x,y,z
_cell_length_a                    24.4936
_cell_length_b                    24.4936
_cell_length_c                    22.3997
_cell_angle_alpha                 90.0000
_cell_angle_beta                  90.0000
_cell_angle_gamma                 89.9999
loop_
_atom_site_label
_atom_site_type_symbol
_atom_site_fract_x
_atom_site_fract_y
_atom_site_fract_z
_atom_site_U_iso_or_equiv
_atom_site_adp_type
_atom_site_occupancy
C1     C     0.22829   0.27170   0.25000   0.00000  Uiso   1.00
C2     C     0.22893   0.72893   0.25000   0.00000  Uiso   1.00
C3     C     0.17645   0.66080   0.30318   0.00000  Uiso   1.00
C4     C     0.36618   0.20333   0.74099   0.00000  Uiso   1.00
C5     C     0.63846   0.79998   0.27674   0.00000  Uiso   1.00
C6     C     0.17207   0.66394   0.69583   0.00000  Uiso   1.00
C7     C     0.82355   0.33920   0.30318   0.00000  Uiso   1.00
C8     C     0.36618   0.79667   0.25904   0.00000  Uiso   1.00
C9     C     0.63846   0.20002   0.72327   0.00000  Uiso   1.00
C10    C     0.17207   0.33605   0.30417   0.00000  Uiso   1.00
C11    C     0.82355   0.66080   0.69682   0.00000  Uiso   1.00
C12    C     0.63382   0.20333   0.25904   0.00000  Uiso   1.00
C13    C     0.72889   0.77111   0.75000   0.00000  Uiso   1.00
C14    C     0.36154   0.79997   0.72328   0.00000  Uiso   1.00
C15    C     0.82793   0.66394   0.30417   0.00000  Uiso   1.00
C16    C     0.17645   0.33920   0.69682   0.00000  Uiso   1.00
C17    C     0.14745   0.35255   0.25000   0.00000  Uiso   1.00
C18    C     0.85213   0.64787   0.75000   0.00000  Uiso   1.00
C19    C     0.35215   0.85215   0.25000   0.00000  Uiso   1.00
C20    C     0.64824   0.14824   0.75000   0.00000  Uiso   1.00
C21    C     0.85255   0.64745   0.25000   0.00000  Uiso   1.00
C22    C     0.14787   0.35213   0.75000   0.00000  Uiso   1.00
C23    C     0.64785   0.14785   0.25000   0.00000  Uiso   1.00
C24    C     0.27050   0.22950   0.25000   0.00000  Uiso   1.00
C25    C     0.35176   0.85176   0.75000   0.00000  Uiso   1.00
C26    C     0.85255   0.35255   0.75000   0.00000  Uiso   1.00
C27    C     0.14787   0.64787   0.25000   0.00000  Uiso   1.00
C28    C     0.64785   0.85215   0.75000   0.00000  Uiso   1.00
C29    C     0.35176   0.14824   0.25000   0.00000  Uiso   1.00
C30    C     0.14745   0.64745   0.75000   0.00000  Uiso   1.00
C31    C     0.85213   0.35213   0.25000   0.00000  Uiso   1.00
C32    C     0.35215   0.14785   0.75000   0.00000  Uiso   1.00
C33    C     0.64824   0.85176   0.25000   0.00000  Uiso   1.00
C34    C     0.22829   0.72829   0.75000   0.00000  Uiso   1.00
C35    C     0.77107   0.27107   0.25000   0.00000  Uiso   1.00
C36    C     0.27111   0.22889   0.75000   0.00000  Uiso   1.00
C37    C     0.72950   0.77050   0.25000   0.00000  Uiso   1.00
C38    C     0.00000   0.50000   0.47330   0.00000  Uiso   1.00
C39    C     0.00000   0.50000   0.52670   0.00000  Uiso   1.00
C40    C     0.50000   0.00000   0.47330   0.00000  Uiso   1.00
C41    C     0.77107   0.72893   0.75000   0.00000  Uiso   1.00
C42    C     0.50000   0.00000   0.52670   0.00000  Uiso   1.00
C43    C     0.50000   0.00000   0.97330   0.00000  Uiso   1.00
C44    C     0.50000   0.00000   0.02670   0.00000  Uiso   1.00
C45    C     0.00000   0.50000   0.97330   0.00000  Uiso   1.00
C46    C     0.00000   0.50000   0.02670   0.00000  Uiso   1.00
C47    C     0.00000   0.50000   0.09005   0.00000  Uiso   1.00
C48    C     0.00000   0.50000   0.90995   0.00000  Uiso   1.00
C49    C     0.50000   0.00000   0.09005   0.00000  Uiso   1.00
C50    C     0.50000   0.00000   0.90995   0.00000  Uiso   1.00
C51    C     0.50000   0.00000   0.59005   0.00000  Uiso   1.00
C52    C     0.27111   0.77111   0.25000   0.00000  Uiso   1.00
C53    C     0.50000   0.00000   0.40995   0.00000  Uiso   1.00
C54    C     0.00000   0.50000   0.59005   0.00000  Uiso   1.00
C55    C    -0.00000   0.50000   0.40995   0.00000  Uiso   1.00
C56    C     0.10529   0.60529   0.25000   0.00000  Uiso   1.00
C57    C     0.89486   0.39486   0.75000   0.00000  Uiso   1.00
C58    C     0.60542   0.89458   0.25000   0.00000  Uiso   1.00
C59    C     0.39472   0.10528   0.75000   0.00000  Uiso   1.00
C60    C     0.89471   0.39471   0.25000   0.00000  Uiso   1.00
C61    C     0.10514   0.60514   0.75000   0.00000  Uiso   1.00
C62    C     0.39458   0.10542   0.25000   0.00000  Uiso   1.00
C63    C     0.72950   0.22950   0.75000   0.00000  Uiso   1.00
C64    C     0.60528   0.89472   0.75000   0.00000  Uiso   1.00
C65    C     0.89471   0.60529   0.75000   0.00000  Uiso   1.00
C66    C     0.10514   0.39486   0.25000   0.00000  Uiso   1.00
C67    C     0.39458   0.89458   0.75000   0.00000  Uiso   1.00
C68    C     0.60528   0.10528   0.25000   0.00000  Uiso   1.00
C69    C     0.10529   0.39471   0.75000   0.00000  Uiso   1.00
C70    C     0.89486   0.60514   0.25000   0.00000  Uiso   1.00
C71    C     0.60542   0.10542   0.75000   0.00000  Uiso   1.00
C72    C     0.39472   0.89472   0.25000   0.00000  Uiso   1.00
C73    C     0.20385   0.28750   0.19636   0.00000  Uiso   1.00
C74    C     0.77170   0.72829   0.25000   0.00000  Uiso   1.00
C75    C     0.79935   0.71706   0.80248   0.00000  Uiso   1.00
C76    C     0.25684   0.82554   0.24032   0.00000  Uiso   1.00
C77    C     0.73963   0.17920   0.77684   0.00000  Uiso   1.00
C78    C     0.79615   0.71250   0.19636   0.00000  Uiso   1.00
C79    C     0.20065   0.28293   0.80248   0.00000  Uiso   1.00
C80    C     0.74316   0.17446   0.24033   0.00000  Uiso   1.00
C81    C     0.26037   0.82081   0.77683   0.00000  Uiso   1.00
C82    C     0.79615   0.28750   0.80364   0.00000  Uiso   1.00
C83    C     0.20065   0.71706   0.19752   0.00000  Uiso   1.00
C84    C     0.74316   0.82554   0.75966   0.00000  Uiso   1.00
C85    C     0.22893   0.27107   0.75000   0.00000  Uiso   1.00
C86    C     0.26037   0.17920   0.22316   0.00000  Uiso   1.00
C87    C     0.20384   0.71251   0.80364   0.00000  Uiso   1.00
C88    C     0.79935   0.28293   0.19752   0.00000  Uiso   1.00
C89    C     0.25684   0.17446   0.75965   0.00000  Uiso   1.00
C90    C     0.73963   0.82080   0.22316   0.00000  Uiso   1.00
C91    C     0.67446   0.75684   0.74034   0.00000  Uiso   1.00
C92    C     0.32080   0.23963   0.27684   0.00000  Uiso   1.00
C93    C     0.78749   0.29615   0.69636   0.00000  Uiso   1.00
C94    C     0.21706   0.70065   0.30248   0.00000  Uiso   1.00
C95    C     0.32555   0.24316   0.74035   0.00000  Uiso   1.00
C96    C     0.72889   0.22889   0.25000   0.00000  Uiso   1.00
C97    C     0.67920   0.76037   0.27684   0.00000  Uiso   1.00
C98    C     0.21251   0.70384   0.69636   0.00000  Uiso   1.00
C99    C     0.78293   0.29935   0.30248   0.00000  Uiso   1.00
C100   C     0.32554   0.75684   0.25968   0.00000  Uiso   1.00
C101   C     0.67919   0.23963   0.72316   0.00000  Uiso   1.00
C102   C     0.21250   0.29615   0.30364   0.00000  Uiso   1.00
C103   C     0.78294   0.70065   0.69752   0.00000  Uiso   1.00
C104   C     0.67446   0.24316   0.25967   0.00000  Uiso   1.00
C105   C     0.32081   0.76037   0.72317   0.00000  Uiso   1.00
C106   C     0.78750   0.70385   0.30364   0.00000  Uiso   1.00
C107   C     0.27050   0.77050   0.75000   0.00000  Uiso   1.00
C108   C     0.21707   0.29935   0.69752   0.00000  Uiso   1.00
C109   C     0.16394   0.32793   0.19583   0.00000  Uiso   1.00
C110   C     0.83920   0.67645   0.80318   0.00000  Uiso   1.00
C111   C     0.29667   0.86618   0.24096   0.00000  Uiso   1.00
C112   C     0.70002   0.13846   0.77673   0.00000  Uiso   1.00
C113   C     0.83606   0.67207   0.19583   0.00000  Uiso   1.00
C114   C     0.16080   0.32355   0.80318   0.00000  Uiso   1.00
C115   C     0.70333   0.13382   0.24096   0.00000  Uiso   1.00
C116   C     0.29997   0.86154   0.77672   0.00000  Uiso   1.00
C117   C     0.83606   0.32793   0.80417   0.00000  Uiso   1.00
C118   C     0.77170   0.27171   0.75000   0.00000  Uiso   1.00
C119   C     0.16080   0.67645   0.19682   0.00000  Uiso   1.00
C120   C     0.70333   0.86618   0.75902   0.00000  Uiso   1.00
C121   C     0.29998   0.13847   0.22327   0.00000  Uiso   1.00
C122   C     0.16394   0.67207   0.80417   0.00000  Uiso   1.00
C123   C     0.83920   0.32355   0.19682   0.00000  Uiso   1.00
C124   C     0.29667   0.13382   0.75902   0.00000  Uiso   1.00
C125   C     0.70002   0.86153   0.22326   0.00000  Uiso   1.00
C126   C     0.63382   0.79667   0.74098   0.00000  Uiso   1.00
C127   C     0.36153   0.20002   0.27674   0.00000  Uiso   1.00
C128   C     0.82793   0.33606   0.69583   0.00000  Uiso   1.00
Cl1    Cl    0.13798   0.34811   0.12576   0.00000  Uiso   1.00
Cl2    Cl    0.13049   0.66138   0.12730   0.00000  Uiso   1.00
Cl3    Cl    0.72578   0.93418   0.76665   0.00000  Uiso   1.00
Cl4    Cl    0.28056   0.07592   0.19047   0.00000  Uiso   1.00
Cl5    Cl    0.13797   0.65191   0.87423   0.00000  Uiso   1.00
Cl6    Cl    0.86951   0.33861   0.12730   0.00000  Uiso   1.00
Cl7    Cl    0.27422   0.06582   0.76663   0.00000  Uiso   1.00
Cl8    Cl    0.71944   0.92408   0.19047   0.00000  Uiso   1.00
Cl9    Cl    0.56582   0.77422   0.73335   0.00000  Uiso   1.00
Cl10   Cl    0.42408   0.21944   0.30953   0.00000  Uiso   1.00
Cl11   Cl    0.84809   0.36203   0.62577   0.00000  Uiso   1.00
Cl12   Cl    0.86951   0.66138   0.87270   0.00000  Uiso   1.00
Cl13   Cl    0.16138   0.63049   0.37270   0.00000  Uiso   1.00
Cl14   Cl    0.43418   0.22578   0.73337   0.00000  Uiso   1.00
Cl15   Cl    0.57592   0.78056   0.30953   0.00000  Uiso   1.00
Cl16   Cl    0.15191   0.63797   0.62577   0.00000  Uiso   1.00
Cl17   Cl    0.83861   0.36951   0.37270   0.00000  Uiso   1.00
Cl18   Cl    0.43418   0.77422   0.26669   0.00000  Uiso   1.00
Cl19   Cl    0.57591   0.21944   0.69048   0.00000  Uiso   1.00
Cl20   Cl    0.15189   0.36201   0.37424   0.00000  Uiso   1.00
Cl21   Cl    0.83862   0.63049   0.62730   0.00000  Uiso   1.00
Cl22   Cl    0.56582   0.22578   0.26668   0.00000  Uiso   1.00
Cl23   Cl    0.27422   0.93417   0.23331   0.00000  Uiso   1.00
Cl24   Cl    0.42409   0.78055   0.69050   0.00000  Uiso   1.00
Cl25   Cl    0.84810   0.63798   0.37424   0.00000  Uiso   1.00
Cl26   Cl    0.16139   0.36951   0.62730   0.00000  Uiso   1.00
Cl27   Cl    0.71944   0.07591   0.80952   0.00000  Uiso   1.00
Cl28   Cl    0.86202   0.65189   0.12577   0.00000  Uiso   1.00
Cl29   Cl    0.13049   0.33861   0.87270   0.00000  Uiso   1.00
Cl30   Cl    0.72578   0.06582   0.23332   0.00000  Uiso   1.00
Cl31   Cl    0.28055   0.92409   0.80950   0.00000  Uiso   1.00
Cl32   Cl    0.86202   0.34810   0.87424   0.00000  Uiso   1.00
H1     H     0.21665   0.26904   0.15467   0.00000  Uiso   1.00
H2     H     0.21043   0.73877   0.15673   0.00000  Uiso   1.00
H3     H     0.78558   0.83650   0.76650   0.00000  Uiso   1.00
H4     H     0.22096   0.17126   0.20291   0.00000  Uiso   1.00
H5     H     0.21664   0.73097   0.84533   0.00000  Uiso   1.00
H6     H     0.78957   0.26123   0.15673   0.00000  Uiso   1.00
H7     H     0.21442   0.16350   0.76649   0.00000  Uiso   1.00
H8     H     0.77903   0.82874   0.20290   0.00000  Uiso   1.00
H9     H     0.66350   0.71442   0.73350   0.00000  Uiso   1.00
H10    H     0.32874   0.27903   0.29710   0.00000  Uiso   1.00
H11    H     0.76903   0.28336   0.65467   0.00000  Uiso   1.00
H12    H     0.78957   0.73877   0.84327   0.00000  Uiso   1.00
H13    H     0.23877   0.71043   0.34327   0.00000  Uiso   1.00
H14    H     0.33650   0.28558   0.73351   0.00000  Uiso   1.00
H15    H     0.67126   0.72096   0.29710   0.00000  Uiso   1.00
H16    H     0.23097   0.71664   0.65467   0.00000  Uiso   1.00
H17    H     0.76123   0.28957   0.34327   0.00000  Uiso   1.00
H18    H     0.33649   0.71442   0.26654   0.00000  Uiso   1.00
H19    H     0.67126   0.27904   0.70291   0.00000  Uiso   1.00
H20    H     0.23096   0.28335   0.34533   0.00000  Uiso   1.00
H21    H     0.76123   0.71043   0.65673   0.00000  Uiso   1.00
H22    H     0.66350   0.28558   0.26653   0.00000  Uiso   1.00
H23    H     0.21442   0.83649   0.23346   0.00000  Uiso   1.00
H24    H     0.32875   0.72096   0.70293   0.00000  Uiso   1.00
H25    H     0.76904   0.71665   0.34533   0.00000  Uiso   1.00
H26    H     0.23877   0.28957   0.65673   0.00000  Uiso   1.00
H27    H     0.77904   0.17126   0.79709   0.00000  Uiso   1.00
H28    H     0.78335   0.73096   0.15467   0.00000  Uiso   1.00
H29    H     0.21043   0.26123   0.84327   0.00000  Uiso   1.00
H30    H     0.78558   0.16351   0.23347   0.00000  Uiso   1.00
H31    H     0.22096   0.82875   0.79707   0.00000  Uiso   1.00
H32    H     0.78335   0.26904   0.84533   0.00000  Uiso   1.00
O1     O     0.00000   0.50000   0.25000   0.00000  Uiso   1.00
O2     O    -0.00000   0.45454   0.88202   0.00000  Uiso   1.00
O3     O     0.54546   0.00000   0.11798   0.00000  Uiso   1.00
O4     O     0.45454   0.00000   0.88202   0.00000  Uiso   1.00
O5     O     0.50000   0.95454   0.61798   0.00000  Uiso   1.00
O6     O     0.50000   0.04546   0.38202   0.00000  Uiso   1.00
O7     O     0.95454   0.50000   0.61798   0.00000  Uiso   1.00
O8     O     0.04546   0.50000   0.38202   0.00000  Uiso   1.00
O9     O     0.50000   0.04546   0.61798   0.00000  Uiso   1.00
O10    O     0.50000   0.95454   0.38202   0.00000  Uiso   1.00
O11    O     0.04546   0.50000   0.61798   0.00000  Uiso   1.00
O12    O     0.00000   0.50000   0.75000   0.00000  Uiso   1.00
O13    O     0.95454   0.50000   0.38202   0.00000  Uiso   1.00
O14    O     0.06399   0.60947   0.21539   0.00000  Uiso   1.00
O15    O     0.93601   0.39053   0.78461   0.00000  Uiso   1.00
O16    O     0.60947   0.93601   0.21539   0.00000  Uiso   1.00
O17    O     0.39053   0.06399   0.78461   0.00000  Uiso   1.00
O18    O     0.93601   0.39053   0.21539   0.00000  Uiso   1.00
O19    O     0.06399   0.60947   0.78461   0.00000  Uiso   1.00
O20    O     0.39053   0.06399   0.21539   0.00000  Uiso   1.00
O21    O     0.60947   0.93601   0.78461   0.00000  Uiso   1.00
O22    O     0.93601   0.60947   0.78461   0.00000  Uiso   1.00
O23    O     0.50000   0.00000   0.25000   0.00000  Uiso   1.00
O24    O     0.06399   0.39053   0.21539   0.00000  Uiso   1.00
O25    O     0.39053   0.93601   0.78461   0.00000  Uiso   1.00
O26    O     0.60947   0.06399   0.21539   0.00000  Uiso   1.00
O27    O     0.06399   0.39053   0.78461   0.00000  Uiso   1.00
O28    O     0.93601   0.60947   0.21539   0.00000  Uiso   1.00
O29    O     0.60947   0.06399   0.78461   0.00000  Uiso   1.00
O30    O     0.39053   0.93601   0.21539   0.00000  Uiso   1.00
O31    O     0.56399   0.10947   0.71539   0.00000  Uiso   1.00
O32    O     0.43601   0.89053   0.28461   0.00000  Uiso   1.00
O33    O     0.10947   0.43601   0.71539   0.00000  Uiso   1.00
O34    O     0.50000   0.00000   0.75000   0.00000  Uiso   1.00
O35    O     0.89053   0.56399   0.28461   0.00000  Uiso   1.00
O36    O     0.43601   0.89053   0.71539   0.00000  Uiso   1.00
O37    O     0.56399   0.10947   0.28461   0.00000  Uiso   1.00
O38    O     0.89053   0.56399   0.71539   0.00000  Uiso   1.00
O39    O     0.10947   0.43601   0.28461   0.00000  Uiso   1.00
O40    O     0.43601   0.10947   0.28461   0.00000  Uiso   1.00
O41    O     0.56399   0.89053   0.71539   0.00000  Uiso   1.00
O42    O     0.89053   0.43601   0.28461   0.00000  Uiso   1.00
O43    O     0.10947   0.56399   0.71539   0.00000  Uiso   1.00
O44    O     0.56399   0.89053   0.28461   0.00000  Uiso   1.00
O45    O    -0.00000   0.45454   0.11798   0.00000  Uiso   1.00
O46    O     0.43601   0.10947   0.71539   0.00000  Uiso   1.00
O47    O     0.10947   0.56399   0.28461   0.00000  Uiso   1.00
O48    O     0.89053   0.43601   0.71539   0.00000  Uiso   1.00
O49    O    -0.00000   0.54546   0.88202   0.00000  Uiso   1.00
O50    O     0.45454   0.00000   0.11798   0.00000  Uiso   1.00
O51    O     0.54546   0.00000   0.88202   0.00000  Uiso   1.00
O52    O    -0.00000   0.54546   0.11798   0.00000  Uiso   1.00
Zn1    Zn    0.06497   0.50000   0.29947   0.00000  Uiso   1.00
Zn2    Zn    0.43503   0.00000   0.20053   0.00000  Uiso   1.00
Zn3    Zn    0.00000   0.43503   0.79947   0.00000  Uiso   1.00
Zn4    Zn   -0.00000   0.56497   0.20053   0.00000  Uiso   1.00
Zn5    Zn    0.43503  -0.00000   0.79947   0.00000  Uiso   1.00
Zn6    Zn    0.56497   0.00000   0.20053   0.00000  Uiso   1.00
Zn7    Zn    0.00000   0.56497   0.79947   0.00000  Uiso   1.00
Zn8    Zn   -0.00000   0.43503   0.20053   0.00000  Uiso   1.00
Zn9    Zn    0.93503   0.50000   0.70053   0.00000  Uiso   1.00
Zn10   Zn    0.50000   0.93503   0.29947   0.00000  Uiso   1.00
Zn11   Zn    0.50000   0.06497   0.70053   0.00000  Uiso   1.00
Zn12   Zn    0.93503   0.50000   0.29947   0.00000  Uiso   1.00
Zn13   Zn    0.06497   0.50000   0.70053   0.00000  Uiso   1.00
Zn14   Zn    0.50000   0.06497   0.29947   0.00000  Uiso   1.00
Zn15   Zn    0.50000   0.93503   0.70053   0.00000  Uiso   1.00
Zn16   Zn    0.56497  -0.00000   0.79947   0.00000  Uiso   1.00
loop_
_geom_bond_atom_site_label_1
_geom_bond_atom_site_label_2
_geom_bond_distance
_geom_bond_site_symmetry_2
_ccdc_geom_bond_type
C1     C73     1.397   .     A
C1     C24     1.462   .     S
C1     C102    1.397   .     A
C2     C83     1.395   .     A
C2     C94     1.395   .     A
C2     C52     1.461   .     S
C3     Cl13    1.764   .     S
C3     C27     1.417   .     A
C3     C94     1.394   .     A
C4     Cl14    1.762   .     S
C4     C95     1.394   .     A
C4     C32     1.416   .     A
C5     Cl15    1.764   .     S
C5     C33     1.423   .     A
C5     C97     1.392   .     A
C6     C98     1.392   .     A
C6     C30     1.414   .     A
C6     Cl16    1.764   .     S
C7     C99     1.394   .     A
C7     C31     1.417   .     A
C7     Cl17    1.764   .     S
C8     C19     1.416   .     A
C8     Cl18    1.762   .     S
C8     C100    1.394   .     A
C9     Cl19    1.764   .     S
C9     C20     1.423   .     A
C9     C101    1.392   .     A
C10    Cl20    1.764   .     S
C10    C17     1.414   .     A
C10    C102    1.392   .     A
C11    C18     1.417   .     A
C11    Cl21    1.764   .     S
C11    C103    1.394   .     A
C12    Cl22    1.762   .     S
C12    C23     1.416   .     A
C12    C104    1.394   .     A
C13    C41     1.461   .     S
C13    C84     1.395   .     A
C13    C91     1.395   .     A
C14    C105    1.392   .     A
C14    C25     1.423   .     A
C14    Cl24    1.764   .     S
C15    C106    1.392   .     A
C15    C21     1.414   .     A
C15    Cl25    1.764   .     S
C16    C108    1.394   .     A
C16    C22     1.417   .     A
C16    Cl26    1.764   .     S
C17    C66     1.466   .     S
C17    C109    1.414   .     A
C18    C65     1.475   .     S
C18    C110    1.417   .     A
C19    C72     1.475   .     S
C19    C111    1.416   .     A
C20    C112    1.423   .     A
C20    C71     1.483   .     S
C21    C113    1.414   .     A
C21    C70     1.466   .     S
C22    C69     1.475   .     S
C22    C114    1.417   .     A
C23    C68     1.475   .     S
C23    C115    1.416   .     A
C24    C92     1.393   .     A
C24    C86     1.393   .     A
C25    C116    1.423   .     A
C25    C67     1.483   .     S
C26    C117    1.414   .     A
C26    C128    1.414   .     A
C26    C57     1.466   .     S
C27    C119    1.417   .     A
C27    C56     1.475   .     S
C28    C126    1.416   .     A
C28    C120    1.416   .     A
C28    C64     1.475   .     S
C29    C121    1.423   .     A
C29    C62     1.483   .     S
C29    C127    1.423   .     A
C30    C122    1.414   .     A
C30    C61     1.466   .     S
C31    C123    1.417   .     A
C31    C60     1.475   .     S
C32    C124    1.416   .     A
C32    C59     1.475   .     S
C33    C58     1.483   .     S
C33    C125    1.423   .     A
C34    C107    1.462   .     S
C34    C98     1.397   .     A
C34    C87     1.397   .     A
C35    C99     1.395   .     A
C35    C96     1.461   .     S
C35    C88     1.395   .     A
C36    C89     1.395   .     A
C36    C85     1.461   .     S
C36    C95     1.395   .     A
C37    C74     1.462   .     S
C37    C90     1.393   .     A
C37    C97     1.393   .     A
C38    C39     1.196   .     T
C38    C55     1.419   .     S
C39    C54     1.419   .     S
C40    C42     1.196   .     T
C40    C53     1.419   .     S
C41    C103    1.395   .     A
C41    C75     1.395   .     A
C42    C51     1.419   .     S
C43    C50     1.419   .     S
C43    C44     1.196   1_556 S
C44    C49     1.419   .     S
C44    C43     1.196   1_554 S
C45    C48     1.419   .     S
C45    C46     1.196   1_556 S
C46    C47     1.419   .     S
C46    C45     1.196   1_554 S
C47    O45     1.277   .     S
C47    O52     1.277   .     S
C48    O2      1.277   .     S
C48    O49     1.277   .     S
C49    O50     1.277   .     A
C49    O3      1.277   .     A
C50    O4      1.277   .     A
C50    O51     1.277   .     A
C51    O9      1.277   .     A
C51    O5      1.277   1_545 S
C52    C76     1.395   .     A
C52    C100    1.395   .     A
C53    O6      1.277   .     A
C53    O10     1.277   1_545 S
C54    O11     1.277   .     A
C54    O7      1.277   1_455 S
C55    O13     1.277   1_455 A
C55    O8      1.277   .     S
C56    O47     1.279   .     A
C56    O14     1.279   .     A
C57    O15     1.276   .     A
C57    O48     1.276   .     A
C58    O44     1.281   .     A
C58    O16     1.281   .     A
C59    O46     1.278   .     A
C59    O17     1.278   .     A
C60    O42     1.279   .     A
C60    O18     1.279   .     A
C61    O19     1.276   .     A
C61    O43     1.276   .     A
C62    O40     1.281   .     A
C62    O20     1.281   .     A
C63    C101    1.393   .     A
C63    C118    1.462   .     S
C63    C77     1.393   .     A
C64    O21     1.278   .     A
C64    O41     1.278   .     A
C65    O38     1.279   .     A
C65    O22     1.279   .     A
C66    O39     1.276   .     A
C66    O24     1.276   .     A
C67    O25     1.281   .     A
C67    O36     1.281   .     A
C68    O26     1.278   .     A
C68    O37     1.278   .     A
C69    O33     1.279   .     A
C69    O27     1.279   .     A
C70    O35     1.276   .     A
C70    O28     1.276   .     A
C71    O29     1.281   .     A
C71    O31     1.281   .     A
C72    O32     1.278   .     A
C72    O30     1.278   .     A
C73    H1      1.084   .     S
C73    C109    1.392   .     A
C74    C106    1.397   .     A
C74    C78     1.397   .     A
C75    H12     1.084   .     S
C75    C110    1.394   .     A
C76    H23     1.084   .     S
C76    C111    1.394   .     A
C77    C112    1.392   .     A
C77    H27     1.084   .     S
C78    H28     1.084   .     S
C78    C113    1.392   .     A
C79    H29     1.084   .     S
C79    C85     1.395   .     A
C79    C114    1.394   .     A
C80    C96     1.395   .     A
C80    C115    1.394   .     A
C80    H30     1.084   .     S
C81    C107    1.393   .     A
C81    H31     1.084   .     S
C81    C116    1.392   .     A
C82    C117    1.392   .     A
C82    H32     1.084   .     S
C82    C118    1.397   .     A
C83    C119    1.394   .     A
C83    H2      1.084   .     S
C84    C120    1.394   .     A
C84    H3      1.084   .     S
C85    C108    1.395   .     A
C86    C121    1.392   .     A
C86    H4      1.084   .     S
C87    C122    1.392   .     A
C87    H5      1.084   .     S
C88    C123    1.394   .     A
C88    H6      1.084   .     S
C89    H7      1.084   .     S
C89    C124    1.394   .     A
C90    H8      1.084   .     S
C90    C125    1.392   .     A
C91    C126    1.394   .     A
C91    H9      1.084   .     S
C92    H10     1.084   .     S
C92    C127    1.392   .     A
C93    C118    1.397   .     A
C93    H11     1.084   .     S
C93    C128    1.392   .     A
C94    H13     1.084   .     S
C95    H14     1.084   .     S
C96    C104    1.395   .     A
C97    H15     1.084   .     S
C98    H16     1.084   .     S
C99    H17     1.084   .     S
C100   H18     1.084   .     S
C101   H19     1.084   .     S
C102   H20     1.084   .     S
C103   H21     1.084   .     S
C104   H22     1.084   .     S
C105   C107    1.393   .     A
C105   H24     1.084   .     S
C106   H25     1.084   .     S
C108   H26     1.084   .     S
C109   Cl1     1.764   .     S
C110   Cl12    1.764   .     S
C111   Cl23    1.762   .     S
C112   Cl27    1.764   .     S
C113   Cl28    1.764   .     S
C114   Cl29    1.764   .     S
C115   Cl30    1.762   .     S
C116   Cl31    1.764   .     S
C117   Cl32    1.764   .     S
C119   Cl2     1.764   .     S
C120   Cl3     1.762   .     S
C121   Cl4     1.764   .     S
C122   Cl5     1.764   .     S
C123   Cl6     1.764   .     S
C124   Cl7     1.762   .     S
C125   Cl8     1.764   .     S
C126   Cl9     1.762   .     S
C127   Cl10    1.764   .     S
C128   Cl11    1.764   .     S
O1     Zn1     1.939   .     S
O1     Zn4     1.939   .     S
O1     Zn8     1.939   .     S
O1     Zn12    1.939   1_455 S
O2     Zn3     1.910   .     S
O3     Zn6     1.910   .     S
O4     Zn5     1.910   .     S
O5     Zn15    1.910   .     S
O5     C51     1.277   1_565 S
O6     Zn14    1.910   .     S
O7     Zn9     1.910   .     S
O7     C54     1.277   1_655 S
O8     Zn1     1.910   .     S
O9     Zn11    1.910   .     S
O10    Zn10    1.910   .     S
O10    C53     1.277   1_565 S
O11    Zn13    1.910   .     S
O12    Zn7     1.939   .     S
O12    Zn3     1.939   .     S
O12    Zn13    1.939   .     S
O12    Zn9     1.939   1_455 S
O13    C55     1.277   1_655 A
O13    Zn12    1.910   .     S
O14    Zn4     1.938   .     S
O15    Zn3     1.938   1_655 S
O16    Zn6     1.938   1_565 S
O17    Zn5     1.938   .     S
O18    Zn8     1.938   1_655 S
O19    Zn7     1.938   .     S
O20    Zn2     1.938   .     S
O21    Zn16    1.938   1_565 S
O22    Zn7     1.938   1_655 S
O23    Zn6     1.939   .     S
O23    Zn2     1.939   .     S
O23    Zn14    1.939   .     S
O23    Zn10    1.939   1_545 S
O24    Zn8     1.938   .     S
O25    Zn5     1.938   1_565 S
O26    Zn6     1.938   .     S
O27    Zn3     1.938   .     S
O28    Zn4     1.938   1_655 S
O29    Zn16    1.938   .     S
O30    Zn2     1.938   1_565 S
O31    Zn11    1.938   .     S
O32    Zn10    1.938   .     S
O33    Zn13    1.938   .     S
O34    Zn11    1.939   .     S
O34    Zn5     1.939   .     S
O34    Zn15    1.939   1_545 S
O34    Zn16    1.939   .     S
O35    Zn12    1.938   .     S
O36    Zn15    1.938   .     S
O37    Zn14    1.938   .     S
O38    Zn9     1.938   .     S
O39    Zn1     1.938   .     S
O40    Zn14    1.938   .     S
O41    Zn15    1.938   .     S
O42    Zn12    1.938   .     S
O43    Zn13    1.938   .     S
O44    Zn10    1.938   .     S
O45    Zn8     1.910   .     S
O46    Zn11    1.938   .     S
O47    Zn1     1.938   .     S
O48    Zn9     1.938   .     S
O49    Zn7     1.910   .     S
O50    Zn2     1.910   .     S
O51    Zn16    1.910   .     S
O52    Zn4     1.910   .     S
Zn2    O30     1.938   1_545 S
Zn3    O15     1.938   1_455 S
Zn4    O28     1.938   1_455 S
Zn5    O25     1.938   1_545 S
Zn6    O16     1.938   1_545 S
Zn7    O22     1.938   1_455 S
Zn8    O18     1.938   1_455 S
Zn9    O12     1.939   1_655 S
Zn10   O23     1.939   1_565 S
Zn12   O1      1.939   1_655 S
Zn15   O34     1.939   1_565 S
Zn16   O21     1.938   1_545 S
