data_str_m1_o2_o5_pcu_sym.11
_audit_creation_date              2020-01-03
_audit_creation_method            'Materials Studio'
_symmetry_space_group_name_H-M    'P1'
_symmetry_Int_Tables_number       1
_symmetry_cell_setting            triclinic
loop_
_symmetry_equiv_pos_as_xyz
  x,y,z
_cell_length_a                    24.3780
_cell_length_b                    24.3780
_cell_length_c                    22.4725
_cell_angle_alpha                 90.0000
_cell_angle_beta                  90.0000
_cell_angle_gamma                 90.0000
loop_
_atom_site_label
_atom_site_type_symbol
_atom_site_fract_x
_atom_site_fract_y
_atom_site_fract_z
_atom_site_U_iso_or_equiv
_atom_site_adp_type
_atom_site_occupancy
C1     C     0.22867   0.27133   0.25000   0.00000  Uiso   1.00
C2     C     0.22870   0.72870   0.25000   0.00000  Uiso   1.00
C3     C     0.20130   0.63443   0.23232   0.00000  Uiso   1.00
C4     C     0.36557   0.20131   0.76767   0.00000  Uiso   1.00
C5     C     0.63443   0.79870   0.23232   0.00000  Uiso   1.00
C6     C     0.20130   0.63443   0.76767   0.00000  Uiso   1.00
C7     C     0.79870   0.36557   0.23233   0.00000  Uiso   1.00
C8     C     0.32015   0.84417   0.30103   0.00000  Uiso   1.00
C9     C     0.67985   0.15583   0.69897   0.00000  Uiso   1.00
C10    C     0.15584   0.32016   0.30103   0.00000  Uiso   1.00
C11    C     0.84417   0.67985   0.69897   0.00000  Uiso   1.00
C12    C     0.67985   0.15583   0.30103   0.00000  Uiso   1.00
C13    C     0.72870   0.77130   0.75000   0.00000  Uiso   1.00
C14    C     0.32015   0.84417   0.69897   0.00000  Uiso   1.00
C15    C     0.84417   0.67985   0.30103   0.00000  Uiso   1.00
C16    C     0.15583   0.32015   0.69897   0.00000  Uiso   1.00
C17    C     0.14742   0.35259   0.25000   0.00000  Uiso   1.00
C18    C     0.85259   0.64742   0.75000   0.00000  Uiso   1.00
C19    C     0.35259   0.85259   0.25000   0.00000  Uiso   1.00
C20    C     0.64742   0.14742   0.75000   0.00000  Uiso   1.00
C21    C     0.85259   0.64742   0.25000   0.00000  Uiso   1.00
C22    C     0.14742   0.35259   0.75000   0.00000  Uiso   1.00
C23    C     0.64742   0.14742   0.25000   0.00000  Uiso   1.00
C24    C     0.27130   0.22870   0.25000   0.00000  Uiso   1.00
C25    C     0.35259   0.85259   0.75000   0.00000  Uiso   1.00
C26    C     0.85257   0.35257   0.75000   0.00000  Uiso   1.00
C27    C     0.14743   0.64743   0.25000   0.00000  Uiso   1.00
C28    C     0.64743   0.85257   0.75000   0.00000  Uiso   1.00
C29    C     0.35257   0.14743   0.25000   0.00000  Uiso   1.00
C30    C     0.14743   0.64743   0.75000   0.00000  Uiso   1.00
C31    C     0.85257   0.35257   0.25000   0.00000  Uiso   1.00
C32    C     0.35257   0.14743   0.75000   0.00000  Uiso   1.00
C33    C     0.64743   0.85257   0.25000   0.00000  Uiso   1.00
C34    C     0.22870   0.72870   0.75000   0.00000  Uiso   1.00
C35    C     0.77130   0.27130   0.25000   0.00000  Uiso   1.00
C36    C     0.27130   0.22870   0.75000   0.00000  Uiso   1.00
C37    C     0.72870   0.77130   0.25000   0.00000  Uiso   1.00
C38    C     0.00000   0.50000   0.47334   0.00000  Uiso   1.00
C39    C     0.00000   0.50000   0.52666   0.00000  Uiso   1.00
C40    C     0.50000   0.00000   0.47334   0.00000  Uiso   1.00
C41    C     0.77133   0.72867   0.75000   0.00000  Uiso   1.00
C42    C     0.50000   0.00000   0.52666   0.00000  Uiso   1.00
C43    C     0.50000   0.00000   0.97334   0.00000  Uiso   1.00
C44    C     0.50000   0.00000   0.02666   0.00000  Uiso   1.00
C45    C     0.00000   0.50000   0.97334   0.00000  Uiso   1.00
C46    C     0.00000   0.50000   0.02666   0.00000  Uiso   1.00
C47    C     0.00000   0.50000   0.08997   0.00000  Uiso   1.00
C48    C     0.00000   0.50000   0.91004   0.00000  Uiso   1.00
C49    C     0.50000   0.00000   0.08996   0.00000  Uiso   1.00
C50    C     0.50000   0.00000   0.91003   0.00000  Uiso   1.00
C51    C     0.50000   0.00000   0.58996   0.00000  Uiso   1.00
C52    C     0.27133   0.77133   0.25000   0.00000  Uiso   1.00
C53    C     0.50000   0.00000   0.41003   0.00000  Uiso   1.00
C54    C     0.00000   0.50000   0.58997   0.00000  Uiso   1.00
C55    C     0.00000   0.50000   0.41004   0.00000  Uiso   1.00
C56    C     0.10513   0.60513   0.25000   0.00000  Uiso   1.00
C57    C     0.89487   0.39487   0.75000   0.00000  Uiso   1.00
C58    C     0.60513   0.89487   0.25000   0.00000  Uiso   1.00
C59    C     0.39487   0.10513   0.75000   0.00000  Uiso   1.00
C60    C     0.89487   0.39487   0.25000   0.00000  Uiso   1.00
C61    C     0.10513   0.60513   0.75000   0.00000  Uiso   1.00
C62    C     0.39487   0.10513   0.25000   0.00000  Uiso   1.00
C63    C     0.72867   0.22867   0.75000   0.00000  Uiso   1.00
C64    C     0.60513   0.89487   0.75000   0.00000  Uiso   1.00
C65    C     0.89488   0.60513   0.75000   0.00000  Uiso   1.00
C66    C     0.10513   0.39487   0.25000   0.00000  Uiso   1.00
C67    C     0.39488   0.89488   0.75000   0.00000  Uiso   1.00
C68    C     0.60513   0.10513   0.25000   0.00000  Uiso   1.00
C69    C     0.10513   0.39487   0.75000   0.00000  Uiso   1.00
C70    C     0.89488   0.60513   0.25000   0.00000  Uiso   1.00
C71    C     0.60513   0.10513   0.75000   0.00000  Uiso   1.00
C72    C     0.39488   0.89488   0.25000   0.00000  Uiso   1.00
C73    C     0.22048   0.30391   0.19942   0.00000  Uiso   1.00
C74    C     0.77133   0.72867   0.25000   0.00000  Uiso   1.00
C75    C     0.77952   0.69609   0.80057   0.00000  Uiso   1.00
C76    C     0.30391   0.77952   0.19942   0.00000  Uiso   1.00
C77    C     0.69609   0.22048   0.80057   0.00000  Uiso   1.00
C78    C     0.77952   0.69609   0.19942   0.00000  Uiso   1.00
C79    C     0.22048   0.30391   0.80057   0.00000  Uiso   1.00
C80    C     0.69609   0.22048   0.19942   0.00000  Uiso   1.00
C81    C     0.30391   0.77952   0.80058   0.00000  Uiso   1.00
C82    C     0.82483   0.25855   0.73204   0.00000  Uiso   1.00
C83    C     0.17517   0.74145   0.26796   0.00000  Uiso   1.00
C84    C     0.74145   0.82483   0.73204   0.00000  Uiso   1.00
C85    C     0.22867   0.27133   0.75000   0.00000  Uiso   1.00
C86    C     0.25855   0.17517   0.26796   0.00000  Uiso   1.00
C87    C     0.17517   0.74145   0.73204   0.00000  Uiso   1.00
C88    C     0.82483   0.25855   0.26796   0.00000  Uiso   1.00
C89    C     0.25855   0.17517   0.73204   0.00000  Uiso   1.00
C90    C     0.74145   0.82483   0.26796   0.00000  Uiso   1.00
C91    C     0.67517   0.75855   0.76796   0.00000  Uiso   1.00
C92    C     0.32483   0.24145   0.23204   0.00000  Uiso   1.00
C93    C     0.75855   0.32483   0.76796   0.00000  Uiso   1.00
C94    C     0.24145   0.67517   0.23204   0.00000  Uiso   1.00
C95    C     0.32483   0.24146   0.76795   0.00000  Uiso   1.00
C96    C     0.72867   0.22867   0.25000   0.00000  Uiso   1.00
C97    C     0.67517   0.75855   0.23204   0.00000  Uiso   1.00
C98    C     0.24145   0.67517   0.76796   0.00000  Uiso   1.00
C99    C     0.75855   0.32483   0.23204   0.00000  Uiso   1.00
C100   C     0.27952   0.80391   0.30058   0.00000  Uiso   1.00
C101   C     0.72048   0.19609   0.69942   0.00000  Uiso   1.00
C102   C     0.19609   0.27953   0.30058   0.00000  Uiso   1.00
C103   C     0.80391   0.72048   0.69942   0.00000  Uiso   1.00
C104   C     0.72048   0.19609   0.30057   0.00000  Uiso   1.00
C105   C     0.27952   0.80391   0.69943   0.00000  Uiso   1.00
C106   C     0.80391   0.72048   0.30058   0.00000  Uiso   1.00
C107   C     0.27133   0.77133   0.75000   0.00000  Uiso   1.00
C108   C     0.19609   0.27952   0.69943   0.00000  Uiso   1.00
C109   C     0.17985   0.34416   0.19897   0.00000  Uiso   1.00
C110   C     0.82015   0.65583   0.80103   0.00000  Uiso   1.00
C111   C     0.34417   0.82015   0.19897   0.00000  Uiso   1.00
C112   C     0.65583   0.17985   0.80103   0.00000  Uiso   1.00
C113   C     0.82015   0.65583   0.19897   0.00000  Uiso   1.00
C114   C     0.17985   0.34417   0.80103   0.00000  Uiso   1.00
C115   C     0.65583   0.17985   0.19897   0.00000  Uiso   1.00
C116   C     0.34417   0.82015   0.80103   0.00000  Uiso   1.00
C117   C     0.86557   0.29870   0.73232   0.00000  Uiso   1.00
C118   C     0.77130   0.27130   0.75000   0.00000  Uiso   1.00
C119   C     0.13443   0.70130   0.26768   0.00000  Uiso   1.00
C120   C     0.70131   0.86557   0.73233   0.00000  Uiso   1.00
C121   C     0.29870   0.13443   0.26767   0.00000  Uiso   1.00
C122   C     0.13443   0.70130   0.73233   0.00000  Uiso   1.00
C123   C     0.86557   0.29870   0.26767   0.00000  Uiso   1.00
C124   C     0.29869   0.13443   0.73233   0.00000  Uiso   1.00
C125   C     0.70130   0.86557   0.26767   0.00000  Uiso   1.00
C126   C     0.63443   0.79870   0.76767   0.00000  Uiso   1.00
C127   C     0.36557   0.20130   0.23232   0.00000  Uiso   1.00
C128   C     0.79870   0.36557   0.76767   0.00000  Uiso   1.00
H1     H     0.24534   0.29765   0.16005   0.00000  Uiso   1.00
H2     H     0.16494   0.78281   0.28167   0.00000  Uiso   1.00
H3     H     0.78281   0.83506   0.71834   0.00000  Uiso   1.00
H4     H     0.21719   0.16494   0.28167   0.00000  Uiso   1.00
H5     H     0.16494   0.78281   0.71833   0.00000  Uiso   1.00
H6     H     0.83506   0.21719   0.28167   0.00000  Uiso   1.00
H7     H     0.21719   0.16494   0.71834   0.00000  Uiso   1.00
H8     H     0.78281   0.83506   0.28167   0.00000  Uiso   1.00
H9     H     0.66494   0.71719   0.78166   0.00000  Uiso   1.00
H10    H     0.33506   0.28281   0.21833   0.00000  Uiso   1.00
H11    H     0.71719   0.33506   0.78167   0.00000  Uiso   1.00
H12    H     0.75466   0.70234   0.83994   0.00000  Uiso   1.00
H13    H     0.28281   0.66494   0.21833   0.00000  Uiso   1.00
H14    H     0.33506   0.28281   0.78166   0.00000  Uiso   1.00
H15    H     0.66494   0.71719   0.21833   0.00000  Uiso   1.00
H16    H     0.28281   0.66494   0.78167   0.00000  Uiso   1.00
H17    H     0.71719   0.33506   0.21833   0.00000  Uiso   1.00
H18    H     0.25466   0.79765   0.33995   0.00000  Uiso   1.00
H19    H     0.74534   0.20234   0.66006   0.00000  Uiso   1.00
H20    H     0.20235   0.25466   0.33995   0.00000  Uiso   1.00
H21    H     0.79766   0.74534   0.66006   0.00000  Uiso   1.00
H22    H     0.74534   0.20234   0.33994   0.00000  Uiso   1.00
H23    H     0.29766   0.75466   0.16006   0.00000  Uiso   1.00
H24    H     0.25466   0.79766   0.66006   0.00000  Uiso   1.00
H25    H     0.79765   0.74534   0.33995   0.00000  Uiso   1.00
H26    H     0.20234   0.25465   0.66006   0.00000  Uiso   1.00
H27    H     0.70234   0.24534   0.83994   0.00000  Uiso   1.00
H28    H     0.75466   0.70235   0.16005   0.00000  Uiso   1.00
H29    H     0.24535   0.29766   0.83994   0.00000  Uiso   1.00
H30    H     0.70234   0.24534   0.16006   0.00000  Uiso   1.00
H31    H     0.29766   0.75466   0.83994   0.00000  Uiso   1.00
H32    H     0.83506   0.21719   0.71833   0.00000  Uiso   1.00
I1     I     0.17091   0.39209   0.12061   0.00000  Uiso   1.00
I2     I     0.05468   0.72422   0.29661   0.00000  Uiso   1.00
I3     I     0.72422   0.94532   0.70341   0.00000  Uiso   1.00
I4     I     0.27578   0.05468   0.29660   0.00000  Uiso   1.00
I5     I     0.05468   0.72422   0.70340   0.00000  Uiso   1.00
I6     I     0.94532   0.27578   0.29660   0.00000  Uiso   1.00
I7     I     0.27577   0.05468   0.70342   0.00000  Uiso   1.00
I8     I     0.72422   0.94532   0.29660   0.00000  Uiso   1.00
I9     I     0.55468   0.77578   0.79659   0.00000  Uiso   1.00
I10    I     0.44532   0.22422   0.20340   0.00000  Uiso   1.00
I11    I     0.77578   0.44532   0.79660   0.00000  Uiso   1.00
I12    I     0.82908   0.60790   0.87939   0.00000  Uiso   1.00
I13    I     0.22422   0.55468   0.20339   0.00000  Uiso   1.00
I14    I     0.44533   0.22423   0.79658   0.00000  Uiso   1.00
I15    I     0.55468   0.77578   0.20340   0.00000  Uiso   1.00
I16    I     0.22422   0.55468   0.79660   0.00000  Uiso   1.00
I17    I     0.77578   0.44532   0.20340   0.00000  Uiso   1.00
I18    I     0.32908   0.89210   0.37939   0.00000  Uiso   1.00
I19    I     0.67092   0.10790   0.62061   0.00000  Uiso   1.00
I20    I     0.10791   0.32909   0.37939   0.00000  Uiso   1.00
I21    I     0.89210   0.67092   0.62061   0.00000  Uiso   1.00
I22    I     0.67092   0.10790   0.37939   0.00000  Uiso   1.00
I23    I     0.39210   0.82908   0.12061   0.00000  Uiso   1.00
I24    I     0.32908   0.89210   0.62061   0.00000  Uiso   1.00
I25    I     0.89210   0.67092   0.37939   0.00000  Uiso   1.00
I26    I     0.10789   0.32908   0.62061   0.00000  Uiso   1.00
I27    I     0.60790   0.17092   0.87939   0.00000  Uiso   1.00
I28    I     0.82908   0.60790   0.12061   0.00000  Uiso   1.00
I29    I     0.17092   0.39211   0.87939   0.00000  Uiso   1.00
I30    I     0.60790   0.17092   0.12061   0.00000  Uiso   1.00
I31    I     0.39210   0.82908   0.87939   0.00000  Uiso   1.00
I32    I     0.94532   0.27578   0.70340   0.00000  Uiso   1.00
O1     O     0.00000   0.50000   0.25000   0.00000  Uiso   1.00
O2     O     0.00000   0.45454   0.88202   0.00000  Uiso   1.00
O3     O     0.54546   0.00000   0.11798   0.00000  Uiso   1.00
O4     O     0.45454   0.00000   0.88202   0.00000  Uiso   1.00
O5     O     0.50000   0.95454   0.61798   0.00000  Uiso   1.00
O6     O     0.50000   0.04546   0.38202   0.00000  Uiso   1.00
O7     O     0.95454   0.50000   0.61798   0.00000  Uiso   1.00
O8     O     0.04546   0.50000   0.38202   0.00000  Uiso   1.00
O9     O     0.50000   0.04546   0.61798   0.00000  Uiso   1.00
O10    O     0.50000   0.95454   0.38202   0.00000  Uiso   1.00
O11    O     0.04546   0.50000   0.61798   0.00000  Uiso   1.00
O12    O     0.00000   0.50000   0.75000   0.00000  Uiso   1.00
O13    O     0.95454   0.50000   0.38202   0.00000  Uiso   1.00
O14    O     0.06399   0.60947   0.21539   0.00000  Uiso   1.00
O15    O     0.93601   0.39053   0.78461   0.00000  Uiso   1.00
O16    O     0.60947   0.93601   0.21539   0.00000  Uiso   1.00
O17    O     0.39053   0.06399   0.78461   0.00000  Uiso   1.00
O18    O     0.93601   0.39053   0.21539   0.00000  Uiso   1.00
O19    O     0.06399   0.60947   0.78461   0.00000  Uiso   1.00
O20    O     0.39053   0.06399   0.21539   0.00000  Uiso   1.00
O21    O     0.60947   0.93601   0.78461   0.00000  Uiso   1.00
O22    O     0.93601   0.60947   0.78461   0.00000  Uiso   1.00
O23    O     0.50000   0.00000   0.25000   0.00000  Uiso   1.00
O24    O     0.06399   0.39053   0.21539   0.00000  Uiso   1.00
O25    O     0.39053   0.93601   0.78461   0.00000  Uiso   1.00
O26    O     0.60947   0.06399   0.21539   0.00000  Uiso   1.00
O27    O     0.06399   0.39053   0.78461   0.00000  Uiso   1.00
O28    O     0.93601   0.60947   0.21539   0.00000  Uiso   1.00
O29    O     0.60947   0.06399   0.78461   0.00000  Uiso   1.00
O30    O     0.39053   0.93601   0.21539   0.00000  Uiso   1.00
O31    O     0.56399   0.10947   0.71539   0.00000  Uiso   1.00
O32    O     0.43601   0.89053   0.28461   0.00000  Uiso   1.00
O33    O     0.10947   0.43601   0.71539   0.00000  Uiso   1.00
O34    O     0.50000   0.00000   0.75000   0.00000  Uiso   1.00
O35    O     0.89053   0.56399   0.28461   0.00000  Uiso   1.00
O36    O     0.43601   0.89053   0.71539   0.00000  Uiso   1.00
O37    O     0.56399   0.10947   0.28461   0.00000  Uiso   1.00
O38    O     0.89053   0.56399   0.71539   0.00000  Uiso   1.00
O39    O     0.10947   0.43601   0.28461   0.00000  Uiso   1.00
O40    O     0.43601   0.10947   0.28461   0.00000  Uiso   1.00
O41    O     0.56399   0.89053   0.71539   0.00000  Uiso   1.00
O42    O     0.89053   0.43601   0.28461   0.00000  Uiso   1.00
O43    O     0.10947   0.56399   0.71539   0.00000  Uiso   1.00
O44    O     0.56399   0.89053   0.28461   0.00000  Uiso   1.00
O45    O     0.00000   0.45454   0.11798   0.00000  Uiso   1.00
O46    O     0.43601   0.10947   0.71539   0.00000  Uiso   1.00
O47    O     0.10947   0.56399   0.28461   0.00000  Uiso   1.00
O48    O     0.89053   0.43601   0.71539   0.00000  Uiso   1.00
O49    O     0.00000   0.54546   0.88202   0.00000  Uiso   1.00
O50    O     0.45454   0.00000   0.11798   0.00000  Uiso   1.00
O51    O     0.54546   0.00000   0.88202   0.00000  Uiso   1.00
O52    O     0.00000   0.54546   0.11798   0.00000  Uiso   1.00
Zn1    Zn    0.06497   0.50000   0.29947   0.00000  Uiso   1.00
Zn2    Zn    0.43503   0.00000   0.20053   0.00000  Uiso   1.00
Zn3    Zn    0.00000   0.43503   0.79947   0.00000  Uiso   1.00
Zn4    Zn    0.00000   0.56497   0.20053   0.00000  Uiso   1.00
Zn5    Zn    0.43503   0.00000   0.79947   0.00000  Uiso   1.00
Zn6    Zn    0.56497   0.00000   0.20053   0.00000  Uiso   1.00
Zn7    Zn    0.00000   0.56497   0.79947   0.00000  Uiso   1.00
Zn8    Zn    0.00000   0.43503   0.20053   0.00000  Uiso   1.00
Zn9    Zn    0.93503   0.50000   0.70053   0.00000  Uiso   1.00
Zn10   Zn    0.50000   0.93503   0.29947   0.00000  Uiso   1.00
Zn11   Zn    0.50000   0.06497   0.70053   0.00000  Uiso   1.00
Zn12   Zn    0.93503   0.50000   0.29947   0.00000  Uiso   1.00
Zn13   Zn    0.06497   0.50000   0.70053   0.00000  Uiso   1.00
Zn14   Zn    0.50000   0.06497   0.29947   0.00000  Uiso   1.00
Zn15   Zn    0.50000   0.93503   0.70053   0.00000  Uiso   1.00
Zn16   Zn    0.56497   0.00000   0.79947   0.00000  Uiso   1.00
loop_
_geom_bond_atom_site_label_1
_geom_bond_atom_site_label_2
_geom_bond_distance
_geom_bond_site_symmetry_2
_ccdc_geom_bond_type
C1     C24     1.470   .     S
C1     C73     1.401   .     A
C1     C102    1.401   .     A
C2     C83     1.401   .     A
C2     C94     1.401   .     A
C2     C52     1.470   .     S
C3     I13     2.125   .     S
C3     C27     1.408   .     A
C3     C94     1.394   .     A
C4     I14     2.125   .     S
C4     C32     1.408   .     A
C4     C95     1.394   .     A
C5     I15     2.125   .     S
C5     C33     1.408   .     A
C5     C97     1.394   .     A
C6     C98     1.394   .     A
C6     C30     1.408   .     A
C6     I16     2.125   .     S
C7     C99     1.394   .     A
C7     I17     2.125   .     S
C7     C31     1.408   .     A
C8     C19     1.408   .     A
C8     I18     2.125   .     S
C8     C100    1.394   .     A
C9     I19     2.125   .     S
C9     C20     1.408   .     A
C9     C101    1.394   .     A
C10    C17     1.408   .     A
C10    C102    1.394   .     A
C10    I20     2.125   .     S
C11    C18     1.408   .     A
C11    I21     2.125   .     S
C11    C103    1.394   .     A
C12    C104    1.394   .     A
C12    I22     2.125   .     S
C12    C23     1.408   .     A
C13    C84     1.401   .     A
C13    C91     1.401   .     A
C13    C41     1.470   .     S
C14    C105    1.394   .     A
C14    I24     2.125   .     S
C14    C25     1.408   .     A
C15    I25     2.125   .     S
C15    C106    1.394   .     A
C15    C21     1.408   .     A
C16    C108    1.394   .     A
C16    C22     1.408   .     A
C16    I26     2.125   .     S
C17    C66     1.458   .     S
C17    C109    1.408   .     A
C18    C65     1.458   .     S
C18    C110    1.408   .     A
C19    C72     1.458   .     S
C19    C111    1.408   .     A
C20    C112    1.408   .     A
C20    C71     1.458   .     S
C21    C113    1.408   .     A
C21    C70     1.458   .     S
C22    C114    1.408   .     A
C22    C69     1.458   .     S
C23    C68     1.458   .     S
C23    C115    1.408   .     A
C24    C92     1.401   .     A
C24    C86     1.401   .     A
C25    C116    1.408   .     A
C25    C67     1.458   .     S
C26    C117    1.408   .     A
C26    C128    1.408   .     A
C26    C57     1.458   .     S
C27    C56     1.458   .     S
C27    C119    1.408   .     A
C28    C126    1.408   .     A
C28    C120    1.408   .     A
C28    C64     1.458   .     S
C29    C121    1.408   .     A
C29    C62     1.458   .     S
C29    C127    1.408   .     A
C30    C122    1.408   .     A
C30    C61     1.458   .     S
C31    C123    1.408   .     A
C31    C60     1.458   .     S
C32    C124    1.408   .     A
C32    C59     1.458   .     S
C33    C58     1.458   .     S
C33    C125    1.408   .     A
C34    C107    1.470   .     S
C34    C98     1.401   .     A
C34    C87     1.401   .     A
C35    C96     1.470   .     S
C35    C99     1.401   .     A
C35    C88     1.401   .     A
C36    C89     1.401   .     A
C36    C85     1.470   .     S
C36    C95     1.401   .     A
C37    C74     1.470   .     S
C37    C97     1.401   .     A
C37    C90     1.401   .     A
C38    C55     1.423   .     S
C38    C39     1.198   .     T
C39    C54     1.423   .     S
C40    C42     1.198   .     T
C40    C53     1.423   .     S
C41    C75     1.401   .     A
C41    C103    1.401   .     A
C42    C51     1.423   .     S
C43    C50     1.423   .     S
C43    C44     1.198   1_556 S
C44    C49     1.423   .     S
C44    C43     1.198   1_554 S
C45    C48     1.423   .     S
C45    C46     1.198   1_556 S
C46    C47     1.423   .     S
C46    C45     1.198   1_554 S
C47    O45     1.275   .     A
C47    O52     1.275   .     S
C48    O2      1.275   .     A
C48    O49     1.275   .     A
C49    O50     1.275   .     A
C49    O3      1.275   .     A
C50    O4      1.275   .     A
C50    O51     1.275   .     A
C51    O9      1.275   .     A
C51    O5      1.275   1_545 S
C52    C100    1.401   .     A
C52    C76     1.401   .     A
C53    O6      1.275   .     A
C53    O10     1.275   1_545 S
C54    O11     1.275   .     A
C54    O7      1.275   1_455 S
C55    O8      1.275   .     A
C55    O13     1.275   1_455 S
C56    O47     1.274   .     A
C56    O14     1.274   .     A
C57    O15     1.274   .     A
C57    O48     1.274   .     A
C58    O44     1.274   .     A
C58    O16     1.274   .     A
C59    O46     1.274   .     A
C59    O17     1.274   .     A
C60    O42     1.274   .     A
C60    O18     1.274   .     A
C61    O19     1.274   .     A
C61    O43     1.274   .     A
C62    O40     1.274   .     A
C62    O20     1.274   .     A
C63    C101    1.401   .     A
C63    C118    1.470   .     S
C63    C77     1.401   .     A
C64    O21     1.274   .     A
C64    O41     1.274   .     A
C65    O38     1.273   .     A
C65    O22     1.273   .     A
C66    O39     1.273   .     A
C66    O24     1.273   .     A
C67    O25     1.273   .     A
C67    O36     1.273   .     A
C68    O26     1.273   .     A
C68    O37     1.273   .     A
C69    O27     1.273   .     A
C69    O33     1.273   .     A
C70    O35     1.273   .     A
C70    O28     1.273   .     A
C71    O31     1.273   .     A
C71    O29     1.273   .     A
C72    O32     1.273   .     A
C72    O30     1.273   .     A
C73    H1      1.083   .     S
C73    C109    1.394   .     A
C74    C106    1.401   .     A
C74    C78     1.401   .     A
C75    H12     1.083   .     S
C75    C110    1.394   .     A
C76    H23     1.083   .     S
C76    C111    1.394   .     A
C77    C112    1.394   .     A
C77    H27     1.083   .     S
C78    C113    1.394   .     A
C78    H28     1.083   .     S
C79    H29     1.083   .     S
C79    C85     1.401   .     A
C79    C114    1.394   .     A
C80    C96     1.401   .     A
C80    H30     1.083   .     S
C80    C115    1.394   .     A
C81    C107    1.401   .     A
C81    H31     1.083   .     S
C81    C116    1.394   .     A
C82    H32     1.083   .     S
C82    C117    1.394   .     A
C82    C118    1.401   .     A
C83    C119    1.394   .     A
C83    H2      1.083   .     S
C84    C120    1.394   .     A
C84    H3      1.083   .     S
C85    C108    1.401   .     A
C86    C121    1.394   .     A
C86    H4      1.083   .     S
C87    H5      1.083   .     S
C87    C122    1.394   .     A
C88    C123    1.394   .     A
C88    H6      1.083   .     S
C89    H7      1.083   .     S
C89    C124    1.394   .     A
C90    H8      1.083   .     S
C90    C125    1.394   .     A
C91    C126    1.394   .     A
C91    H9      1.083   .     S
C92    H10     1.083   .     S
C92    C127    1.394   .     A
C93    H11     1.083   .     S
C93    C118    1.401   .     A
C93    C128    1.394   .     A
C94    H13     1.083   .     S
C95    H14     1.083   .     S
C96    C104    1.401   .     A
C97    H15     1.083   .     S
C98    H16     1.083   .     S
C99    H17     1.083   .     S
C100   H18     1.083   .     S
C101   H19     1.083   .     S
C102   H20     1.083   .     S
C103   H21     1.083   .     S
C104   H22     1.083   .     S
C105   C107    1.401   .     A
C105   H24     1.083   .     S
C106   H25     1.083   .     S
C108   H26     1.083   .     S
C109   I1      2.125   .     S
C110   I12     2.125   .     S
C111   I23     2.125   .     S
C112   I27     2.125   .     S
C113   I28     2.125   .     S
C114   I29     2.125   .     S
C115   I30     2.125   .     S
C116   I31     2.125   .     S
C117   I32     2.125   .     S
C119   I2      2.125   .     S
C120   I3      2.125   .     S
C121   I4      2.125   .     S
C122   I5      2.125   .     S
C123   I6      2.125   .     S
C124   I7      2.125   .     S
C125   I8      2.125   .     S
C126   I9      2.125   .     S
C127   I10     2.125   .     S
C128   I11     2.125   .     S
O1     Zn8     1.935   .     S
O1     Zn1     1.935   .     S
O1     Zn4     1.935   .     S
O1     Zn12    1.935   1_455 S
O2     Zn3     1.915   .     S
O3     Zn6     1.915   .     S
O4     Zn5     1.915   .     S
O5     Zn15    1.915   .     S
O5     C51     1.275   1_565 S
O6     Zn14    1.915   .     S
O7     Zn9     1.915   .     S
O7     C54     1.275   1_655 S
O8     Zn1     1.915   .     S
O9     Zn11    1.915   .     S
O10    Zn10    1.915   .     S
O10    C53     1.275   1_565 S
O11    Zn13    1.915   .     S
O12    Zn7     1.935   .     S
O12    Zn3     1.935   .     S
O12    Zn13    1.935   .     S
O12    Zn9     1.935   1_455 S
O13    Zn12    1.915   .     S
O13    C55     1.275   1_655 S
O14    Zn4     1.929   .     S
O15    Zn3     1.929   1_655 S
O16    Zn6     1.929   1_565 S
O17    Zn5     1.929   .     S
O18    Zn8     1.929   1_655 S
O19    Zn7     1.929   .     S
O20    Zn2     1.929   .     S
O21    Zn16    1.929   1_565 S
O22    Zn7     1.929   1_655 S
O23    Zn6     1.935   .     S
O23    Zn14    1.935   .     S
O23    Zn2     1.935   .     S
O23    Zn10    1.935   1_545 S
O24    Zn8     1.929   .     S
O25    Zn5     1.929   1_565 S
O26    Zn6     1.929   .     S
O27    Zn3     1.929   .     S
O28    Zn4     1.929   1_655 S
O29    Zn16    1.929   .     S
O30    Zn2     1.929   1_565 S
O31    Zn11    1.929   .     S
O32    Zn10    1.929   .     S
O33    Zn13    1.929   .     S
O34    Zn5     1.935   .     S
O34    Zn16    1.935   .     S
O34    Zn11    1.935   .     S
O34    Zn15    1.935   1_545 S
O35    Zn12    1.929   .     S
O36    Zn15    1.929   .     S
O37    Zn14    1.929   .     S
O38    Zn9     1.929   .     S
O39    Zn1     1.929   .     S
O40    Zn14    1.929   .     S
O41    Zn15    1.929   .     S
O42    Zn12    1.929   .     S
O43    Zn13    1.929   .     S
O44    Zn10    1.929   .     S
O45    Zn8     1.915   .     S
O46    Zn11    1.929   .     S
O47    Zn1     1.929   .     S
O48    Zn9     1.929   .     S
O49    Zn7     1.915   .     S
O50    Zn2     1.915   .     S
O51    Zn16    1.915   .     S
O52    Zn4     1.915   .     S
Zn2    O30     1.929   1_545 S
Zn3    O15     1.929   1_455 S
Zn4    O28     1.929   1_455 S
Zn5    O25     1.929   1_545 S
Zn6    O16     1.929   1_545 S
Zn7    O22     1.929   1_455 S
Zn8    O18     1.929   1_455 S
Zn9    O12     1.935   1_655 S
Zn10   O23     1.935   1_565 S
Zn12   O1      1.935   1_655 S
Zn15   O34     1.935   1_565 S
Zn16   O21     1.929   1_545 S
