data_str_m1_o2_o5_pcu_sym.23
_audit_creation_date              2020-01-03
_audit_creation_method            'Materials Studio'
_symmetry_space_group_name_H-M    'P1'
_symmetry_Int_Tables_number       1
_symmetry_cell_setting            triclinic
loop_
_symmetry_equiv_pos_as_xyz
  x,y,z
_cell_length_a                    24.5054
_cell_length_b                    24.5079
_cell_length_c                    22.4045
_cell_angle_alpha                 90.0010
_cell_angle_beta                  89.9983
_cell_angle_gamma                 90.0024
loop_
_atom_site_label
_atom_site_type_symbol
_atom_site_fract_x
_atom_site_fract_y
_atom_site_fract_z
_atom_site_U_iso_or_equiv
_atom_site_adp_type
_atom_site_occupancy
C1     C     0.22877   0.27116   0.25003   0.00000  Uiso   1.00
C2     C     0.22887   0.72886   0.24992   0.00000  Uiso   1.00
C3     C     0.20178   0.63505   0.26711   0.00000  Uiso   1.00
C4     C     0.36476   0.20165   0.73153   0.00000  Uiso   1.00
C5     C     0.65678   0.81995   0.30131   0.00000  Uiso   1.00
C6     C     0.20156   0.63541   0.73119   0.00000  Uiso   1.00
C7     C     0.79811   0.36518   0.26626   0.00000  Uiso   1.00
C8     C     0.34238   0.82080   0.30206   0.00000  Uiso   1.00
C9     C     0.65710   0.17963   0.69851   0.00000  Uiso   1.00
C10    C     0.20189   0.36518   0.26625   0.00000  Uiso   1.00
C11    C     0.81999   0.65684   0.69807   0.00000  Uiso   1.00
C12    C     0.65632   0.18063   0.30096   0.00000  Uiso   1.00
C13    C     0.72876   0.77107   0.75008   0.00000  Uiso   1.00
C14    C     0.34282   0.82047   0.69847   0.00000  Uiso   1.00
C15    C     0.79822   0.63506   0.26753   0.00000  Uiso   1.00
C16    C     0.17934   0.34260   0.69779   0.00000  Uiso   1.00
C17    C     0.14759   0.35200   0.25032   0.00000  Uiso   1.00
C18    C     0.85237   0.64806   0.74964   0.00000  Uiso   1.00
C19    C     0.35219   0.85211   0.24995   0.00000  Uiso   1.00
C20    C     0.64763   0.14797   0.75030   0.00000  Uiso   1.00
C21    C     0.85224   0.64785   0.25010   0.00000  Uiso   1.00
C22    C     0.14764   0.35203   0.74970   0.00000  Uiso   1.00
C23    C     0.64764   0.14810   0.24963   0.00000  Uiso   1.00
C24    C     0.27115   0.22900   0.24985   0.00000  Uiso   1.00
C25    C     0.35238   0.85203   0.75031   0.00000  Uiso   1.00
C26    C     0.85219   0.35212   0.74992   0.00000  Uiso   1.00
C27    C     0.14765   0.64803   0.25027   0.00000  Uiso   1.00
C28    C     0.64759   0.85195   0.75035   0.00000  Uiso   1.00
C29    C     0.35236   0.14810   0.24963   0.00000  Uiso   1.00
C30    C     0.14782   0.64788   0.74993   0.00000  Uiso   1.00
C31    C     0.85241   0.35200   0.25032   0.00000  Uiso   1.00
C32    C     0.35219   0.14788   0.75008   0.00000  Uiso   1.00
C33    C     0.64769   0.85200   0.24971   0.00000  Uiso   1.00
C34    C     0.22885   0.72899   0.74988   0.00000  Uiso   1.00
C35    C     0.77123   0.27116   0.25002   0.00000  Uiso   1.00
C36    C     0.27117   0.22899   0.75014   0.00000  Uiso   1.00
C37    C     0.72897   0.77121   0.25004   0.00000  Uiso   1.00
C38    C    -0.00000   0.50000   0.47330   0.00000  Uiso   1.00
C39    C     0.00000   0.50000   0.52670   0.00000  Uiso   1.00
C40    C     0.50000  -0.00000   0.47330   0.00000  Uiso   1.00
C41    C     0.77114   0.72891   0.74990   0.00000  Uiso   1.00
C42    C     0.50000  -0.00000   0.52670   0.00000  Uiso   1.00
C43    C     0.50000  -0.00000   0.97330   0.00000  Uiso   1.00
C44    C     0.50000  -0.00000   0.02670   0.00000  Uiso   1.00
C45    C     0.00000   0.50000   0.97330   0.00000  Uiso   1.00
C46    C     0.00000   0.50000   0.02670   0.00000  Uiso   1.00
C47    C     0.00000   0.50000   0.09006   0.00000  Uiso   1.00
C48    C     0.00000   0.50000   0.90994   0.00000  Uiso   1.00
C49    C     0.50000  -0.00000   0.09006   0.00000  Uiso   1.00
C50    C     0.50000  -0.00000   0.90995   0.00000  Uiso   1.00
C51    C     0.50000  -0.00000   0.59006   0.00000  Uiso   1.00
C52    C     0.27123   0.77104   0.24988   0.00000  Uiso   1.00
C53    C     0.50000   0.00000   0.40994   0.00000  Uiso   1.00
C54    C     0.00000   0.50000   0.59006   0.00000  Uiso   1.00
C55    C    -0.00000   0.50000   0.40995   0.00000  Uiso   1.00
C56    C     0.10521   0.60531   0.25007   0.00000  Uiso   1.00
C57    C     0.89474   0.39473   0.74999   0.00000  Uiso   1.00
C58    C     0.60522   0.89470   0.24993   0.00000  Uiso   1.00
C59    C     0.39474   0.10527   0.75002   0.00000  Uiso   1.00
C60    C     0.89481   0.39471   0.25008   0.00000  Uiso   1.00
C61    C     0.10526   0.60527   0.74999   0.00000  Uiso   1.00
C62    C     0.39478   0.10533   0.24991   0.00000  Uiso   1.00
C63    C     0.72888   0.22876   0.75000   0.00000  Uiso   1.00
C64    C     0.60520   0.89469   0.75008   0.00000  Uiso   1.00
C65    C     0.89479   0.60532   0.74991   0.00000  Uiso   1.00
C66    C     0.10519   0.39471   0.25008   0.00000  Uiso   1.00
C67    C     0.39480   0.89471   0.75008   0.00000  Uiso   1.00
C68    C     0.60522   0.10533   0.24991   0.00000  Uiso   1.00
C69    C     0.10520   0.39471   0.74993   0.00000  Uiso   1.00
C70    C     0.89476   0.60526   0.25002   0.00000  Uiso   1.00
C71    C     0.60520   0.10529   0.75007   0.00000  Uiso   1.00
C72    C     0.39475   0.89473   0.24999   0.00000  Uiso   1.00
C73    C     0.17534   0.25789   0.23384   0.00000  Uiso   1.00
C74    C     0.77126   0.72895   0.25019   0.00000  Uiso   1.00
C75    C     0.80341   0.72084   0.80047   0.00000  Uiso   1.00
C76    C     0.28031   0.80218   0.19867   0.00000  Uiso   1.00
C77    C     0.72004   0.19745   0.80120   0.00000  Uiso   1.00
C78    C     0.82441   0.74176   0.23254   0.00000  Uiso   1.00
C79    C     0.19728   0.28002   0.80095   0.00000  Uiso   1.00
C80    C     0.72082   0.19686   0.19912   0.00000  Uiso   1.00
C81    C     0.28009   0.80245   0.80127   0.00000  Uiso   1.00
C82    C     0.82406   0.25846   0.76861   0.00000  Uiso   1.00
C83    C     0.17566   0.74194   0.23277   0.00000  Uiso   1.00
C84    C     0.74166   0.82431   0.76717   0.00000  Uiso   1.00
C85    C     0.22888   0.27124   0.75000   0.00000  Uiso   1.00
C86    C     0.27912   0.19680   0.19916   0.00000  Uiso   1.00
C87    C     0.17601   0.74150   0.76881   0.00000  Uiso   1.00
C88    C     0.82465   0.25789   0.23383   0.00000  Uiso   1.00
C89    C     0.25859   0.17613   0.76895   0.00000  Uiso   1.00
C90    C     0.72054   0.80291   0.19907   0.00000  Uiso   1.00
C91    C     0.67547   0.75796   0.73321   0.00000  Uiso   1.00
C92    C     0.30357   0.22109   0.30033   0.00000  Uiso   1.00
C93    C     0.75858   0.32388   0.73111   0.00000  Uiso   1.00
C94    C     0.24170   0.67568   0.26728   0.00000  Uiso   1.00
C95    C     0.32405   0.24153   0.73134   0.00000  Uiso   1.00
C96    C     0.72884   0.22900   0.24984   0.00000  Uiso   1.00
C97    C     0.69699   0.77961   0.30078   0.00000  Uiso   1.00
C98    C     0.24140   0.67616   0.73095   0.00000  Uiso   1.00
C99    C     0.75819   0.32455   0.26644   0.00000  Uiso   1.00
C100   C     0.30236   0.78010   0.30111   0.00000  Uiso   1.00
C101   C     0.69730   0.21996   0.69904   0.00000  Uiso   1.00
C102   C     0.24181   0.32455   0.26644   0.00000  Uiso   1.00
C103   C     0.77927   0.69688   0.69911   0.00000  Uiso   1.00
C104   C     0.69648   0.22103   0.30036   0.00000  Uiso   1.00
C105   C     0.30262   0.78013   0.69900   0.00000  Uiso   1.00
C106   C     0.75839   0.67582   0.26784   0.00000  Uiso   1.00
C107   C     0.27115   0.77123   0.75002   0.00000  Uiso   1.00
C108   C     0.22006   0.30257   0.69882   0.00000  Uiso   1.00
C109   C     0.13430   0.29761   0.23443   0.00000  Uiso   1.00
C110   C     0.84360   0.68048   0.80104   0.00000  Uiso   1.00
C111   C     0.32096   0.84226   0.19778   0.00000  Uiso   1.00
C112   C     0.67931   0.15742   0.80222   0.00000  Uiso   1.00
C113   C     0.86512   0.70187   0.23277   0.00000  Uiso   1.00
C114   C     0.15707   0.32035   0.80148   0.00000  Uiso   1.00
C115   C     0.68011   0.15681   0.19809   0.00000  Uiso   1.00
C116   C     0.32081   0.84248   0.80228   0.00000  Uiso   1.00
C117   C     0.86477   0.29834   0.76841   0.00000  Uiso   1.00
C118   C     0.77117   0.27101   0.74986   0.00000  Uiso   1.00
C119   C     0.13459   0.70224   0.23339   0.00000  Uiso   1.00
C120   C     0.70176   0.86495   0.76701   0.00000  Uiso   1.00
C121   C     0.31983   0.15675   0.19813   0.00000  Uiso   1.00
C122   C     0.13529   0.70163   0.76861   0.00000  Uiso   1.00
C123   C     0.86569   0.29762   0.23442   0.00000  Uiso   1.00
C124   C     0.29842   0.13538   0.76870   0.00000  Uiso   1.00
C125   C     0.67979   0.84292   0.19800   0.00000  Uiso   1.00
C126   C     0.63445   0.79770   0.73374   0.00000  Uiso   1.00
C127   C     0.34373   0.18069   0.30093   0.00000  Uiso   1.00
C128   C     0.79841   0.36463   0.73136   0.00000  Uiso   1.00
H1     H     0.16545   0.21617   0.22201   0.00000  Uiso   1.00
H2     H     0.16595   0.78352   0.22018   0.00000  Uiso   1.00
H3     H     0.78314   0.83463   0.77963   0.00000  Uiso   1.00
H4     H     0.25428   0.20380   0.15988   0.00000  Uiso   1.00
H5     H     0.16604   0.78264   0.78283   0.00000  Uiso   1.00
H6     H     0.83454   0.21617   0.22198   0.00000  Uiso   1.00
H7     H     0.21741   0.16617   0.78286   0.00000  Uiso   1.00
H8     H     0.74501   0.79554   0.15959   0.00000  Uiso   1.00
H9     H     0.66567   0.71634   0.72085   0.00000  Uiso   1.00
H10    H     0.29699   0.24568   0.33990   0.00000  Uiso   1.00
H11    H     0.71739   0.33385   0.71724   0.00000  Uiso   1.00
H12    H     0.79670   0.74529   0.84012   0.00000  Uiso   1.00
H13    H     0.28314   0.66543   0.27998   0.00000  Uiso   1.00
H14    H     0.33404   0.28269   0.71741   0.00000  Uiso   1.00
H15    H     0.70392   0.75542   0.34057   0.00000  Uiso   1.00
H16    H     0.28255   0.66622   0.71694   0.00000  Uiso   1.00
H17    H     0.71661   0.33497   0.27837   0.00000  Uiso   1.00
H18    H     0.29446   0.75618   0.34088   0.00000  Uiso   1.00
H19    H     0.70456   0.24383   0.65908   0.00000  Uiso   1.00
H20    H     0.28339   0.33498   0.27836   0.00000  Uiso   1.00
H21    H     0.75456   0.70401   0.65975   0.00000  Uiso   1.00
H22    H     0.70310   0.24558   0.33995   0.00000  Uiso   1.00
H23    H     0.25639   0.79431   0.15889   0.00000  Uiso   1.00
H24    H     0.29529   0.75634   0.65900   0.00000  Uiso   1.00
H25    H     0.71701   0.66567   0.28085   0.00000  Uiso   1.00
H26    H     0.24421   0.29490   0.65917   0.00000  Uiso   1.00
H27    H     0.05650   0.28456   0.25989   0.00000  Uiso   1.00
H28    H     0.07707   0.24211   0.20569   0.00000  Uiso   1.00
H29    H     0.89421   0.70825   0.86542   0.00000  Uiso   1.00
H30    H     0.84717   0.66261   0.88902   0.00000  Uiso   1.00
H31    H     0.36910   0.85883   0.12713   0.00000  Uiso   1.00
H32    H     0.30239   0.86263   0.11106   0.00000  Uiso   1.00
H33    H     0.63172   0.14052   0.87321   0.00000  Uiso   1.00
H34    H     0.74417   0.20513   0.84085   0.00000  Uiso   1.00
H35    H     0.69855   0.13652   0.88861   0.00000  Uiso   1.00
H36    H     0.91899   0.73282   0.17347   0.00000  Uiso   1.00
H37    H     0.93263   0.74778   0.24562   0.00000  Uiso   1.00
H38    H     0.10729   0.29349   0.86708   0.00000  Uiso   1.00
H39    H     0.15459   0.33948   0.88918   0.00000  Uiso   1.00
H40    H     0.63367   0.13893   0.12649   0.00000  Uiso   1.00
H41    H     0.70074   0.13457   0.11249   0.00000  Uiso   1.00
H42    H     0.36856   0.85928   0.87317   0.00000  Uiso   1.00
H43    H     0.30176   0.86320   0.88878   0.00000  Uiso   1.00
H44    H     0.93236   0.25213   0.75765   0.00000  Uiso   1.00
H45    H     0.83460   0.78313   0.21952   0.00000  Uiso   1.00
H46    H     0.91766   0.26825   0.82925   0.00000  Uiso   1.00
H47    H     0.05650   0.71575   0.25755   0.00000  Uiso   1.00
H48    H     0.07777   0.75742   0.20296   0.00000  Uiso   1.00
H49    H     0.73318   0.91926   0.82549   0.00000  Uiso   1.00
H50    H     0.74761   0.93230   0.75308   0.00000  Uiso   1.00
H51    H     0.36617   0.13881   0.12647   0.00000  Uiso   1.00
H52    H     0.29909   0.13440   0.11259   0.00000  Uiso   1.00
H53    H     0.08255   0.73157   0.82969   0.00000  Uiso   1.00
H54    H     0.06768   0.74788   0.75818   0.00000  Uiso   1.00
H55    H     0.94349   0.28456   0.25987   0.00000  Uiso   1.00
H56    H     0.20452   0.25614   0.84091   0.00000  Uiso   1.00
H57    H     0.92292   0.24211   0.20568   0.00000  Uiso   1.00
H58    H     0.26836   0.08255   0.82961   0.00000  Uiso   1.00
H59    H     0.25210   0.06785   0.75805   0.00000  Uiso   1.00
H60    H     0.63277   0.86023   0.12668   0.00000  Uiso   1.00
H61    H     0.69973   0.86447   0.11199   0.00000  Uiso   1.00
H62    H     0.55645   0.78427   0.75820   0.00000  Uiso   1.00
H63    H     0.57754   0.74248   0.70362   0.00000  Uiso   1.00
H64    H     0.39450   0.20862   0.36508   0.00000  Uiso   1.00
H65    H     0.34750   0.16307   0.38896   0.00000  Uiso   1.00
H66    H     0.76831   0.41752   0.67054   0.00000  Uiso   1.00
H67    H     0.74563   0.20390   0.15982   0.00000  Uiso   1.00
H68    H     0.75211   0.43215   0.74213   0.00000  Uiso   1.00
H69    H     0.23307   0.58083   0.32581   0.00000  Uiso   1.00
H70    H     0.24759   0.56759   0.25347   0.00000  Uiso   1.00
H71    H     0.41760   0.23169   0.67061   0.00000  Uiso   1.00
H72    H     0.43236   0.24787   0.74217   0.00000  Uiso   1.00
H73    H     0.60657   0.79262   0.36629   0.00000  Uiso   1.00
H74    H     0.65371   0.83847   0.38914   0.00000  Uiso   1.00
H75    H     0.23153   0.58268   0.67012   0.00000  Uiso   1.00
H76    H     0.24790   0.56786   0.74162   0.00000  Uiso   1.00
H77    H     0.76619   0.42010   0.32376   0.00000  Uiso   1.00
H78    H     0.25603   0.79469   0.84096   0.00000  Uiso   1.00
H79    H     0.75249   0.43248   0.25105   0.00000  Uiso   1.00
H80    H     0.35880   0.86889   0.37279   0.00000  Uiso   1.00
H81    H     0.36275   0.80217   0.38878   0.00000  Uiso   1.00
H82    H     0.60735   0.20645   0.63287   0.00000  Uiso   1.00
H83    H     0.65466   0.16046   0.61081   0.00000  Uiso   1.00
H84    H     0.23381   0.42011   0.32375   0.00000  Uiso   1.00
H85    H     0.24751   0.43248   0.25103   0.00000  Uiso   1.00
H86    H     0.86654   0.63909   0.62651   0.00000  Uiso   1.00
H87    H     0.79949   0.63472   0.61239   0.00000  Uiso   1.00
H88    H     0.60562   0.20848   0.36522   0.00000  Uiso   1.00
H89    H     0.83405   0.21728   0.78249   0.00000  Uiso   1.00
H90    H     0.65266   0.16291   0.38897   0.00000  Uiso   1.00
H91    H     0.39245   0.79378   0.63264   0.00000  Uiso   1.00
H92    H     0.34509   0.83981   0.61081   0.00000  Uiso   1.00
H93    H     0.76727   0.58121   0.32683   0.00000  Uiso   1.00
H94    H     0.75217   0.56764   0.25470   0.00000  Uiso   1.00
H95    H     0.13178   0.35952   0.62678   0.00000  Uiso   1.00
H96    H     0.19863   0.36355   0.61143   0.00000  Uiso   1.00
N1     N     0.07905   0.28258   0.22032   0.00000  Uiso   1.00
N2     N     0.07952   0.71716   0.21828   0.00000  Uiso   1.00
N3     N     0.71688   0.91967   0.78236   0.00000  Uiso   1.00
N4     N     0.32902   0.12583   0.14450   0.00000  Uiso   1.00
N5     N     0.08100   0.71639   0.78610   0.00000  Uiso   1.00
N6     N     0.92095   0.28259   0.22031   0.00000  Uiso   1.00
N7     N     0.28358   0.08108   0.78604   0.00000  Uiso   1.00
N8     N     0.67010   0.87335   0.14414   0.00000  Uiso   1.00
N9     N     0.57934   0.78278   0.71885   0.00000  Uiso   1.00
N10    N     0.37470   0.17211   0.35439   0.00000  Uiso   1.00
N11    N     0.78356   0.41895   0.71409   0.00000  Uiso   1.00
N12    N     0.87445   0.67176   0.85455   0.00000  Uiso   1.00
N13    N     0.21683   0.58034   0.28266   0.00000  Uiso   1.00
N14    N     0.41907   0.21644   0.71416   0.00000  Uiso   1.00
N15    N     0.62624   0.82904   0.35495   0.00000  Uiso   1.00
N16    N     0.21637   0.58114   0.71372   0.00000  Uiso   1.00
N17    N     0.78292   0.42007   0.28083   0.00000  Uiso   1.00
N18    N     0.37210   0.83128   0.35623   0.00000  Uiso   1.00
N19    N     0.62694   0.17012   0.64469   0.00000  Uiso   1.00
N20    N     0.21709   0.42008   0.28081   0.00000  Uiso   1.00
N21    N     0.82933   0.62606   0.64438   0.00000  Uiso   1.00
N22    N     0.62541   0.17198   0.35445   0.00000  Uiso   1.00
N23    N     0.33144   0.87204   0.14366   0.00000  Uiso   1.00
N24    N     0.37288   0.83008   0.64460   0.00000  Uiso   1.00
N25    N     0.78318   0.58047   0.28354   0.00000  Uiso   1.00
N26    N     0.16927   0.37270   0.64379   0.00000  Uiso   1.00
N27    N     0.66921   0.12735   0.85623   0.00000  Uiso   1.00
N28    N     0.91973   0.71685   0.21674   0.00000  Uiso   1.00
N29    N     0.12689   0.32983   0.85529   0.00000  Uiso   1.00
N30    N     0.67085   0.12594   0.14444   0.00000  Uiso   1.00
N31    N     0.33101   0.87246   0.85634   0.00000  Uiso   1.00
N32    N     0.91910   0.28354   0.78571   0.00000  Uiso   1.00
O1     O     0.00000   0.50000   0.25000   0.00000  Uiso   1.00
O2     O     0.00000   0.45454   0.88202   0.00000  Uiso   1.00
O3     O     0.54546  -0.00000   0.11798   0.00000  Uiso   1.00
O4     O     0.45454   0.00000   0.88202   0.00000  Uiso   1.00
O5     O     0.50000   0.95454   0.61798   0.00000  Uiso   1.00
O6     O     0.50000   0.04546   0.38202   0.00000  Uiso   1.00
O7     O     0.95454   0.50000   0.61798   0.00000  Uiso   1.00
O8     O     0.04546   0.50000   0.38202   0.00000  Uiso   1.00
O9     O     0.50000   0.04546   0.61798   0.00000  Uiso   1.00
O10    O     0.50000   0.95454   0.38202   0.00000  Uiso   1.00
O11    O     0.04546   0.50000   0.61798   0.00000  Uiso   1.00
O12    O     0.00000   0.50000   0.75000   0.00000  Uiso   1.00
O13    O     0.95454   0.50000   0.38202   0.00000  Uiso   1.00
O14    O     0.06399   0.60947   0.21539   0.00000  Uiso   1.00
O15    O     0.93601   0.39053   0.78461   0.00000  Uiso   1.00
O16    O     0.60947   0.93601   0.21539   0.00000  Uiso   1.00
O17    O     0.39053   0.06399   0.78461   0.00000  Uiso   1.00
O18    O     0.93601   0.39053   0.21539   0.00000  Uiso   1.00
O19    O     0.06399   0.60947   0.78461   0.00000  Uiso   1.00
O20    O     0.39053   0.06399   0.21539   0.00000  Uiso   1.00
O21    O     0.60947   0.93601   0.78461   0.00000  Uiso   1.00
O22    O     0.93601   0.60947   0.78461   0.00000  Uiso   1.00
O23    O     0.50000   0.00000   0.25000   0.00000  Uiso   1.00
O24    O     0.06399   0.39053   0.21539   0.00000  Uiso   1.00
O25    O     0.39053   0.93601   0.78461   0.00000  Uiso   1.00
O26    O     0.60947   0.06399   0.21539   0.00000  Uiso   1.00
O27    O     0.06399   0.39053   0.78461   0.00000  Uiso   1.00
O28    O     0.93601   0.60947   0.21539   0.00000  Uiso   1.00
O29    O     0.60947   0.06399   0.78461   0.00000  Uiso   1.00
O30    O     0.39053   0.93601   0.21539   0.00000  Uiso   1.00
O31    O     0.56399   0.10947   0.71539   0.00000  Uiso   1.00
O32    O     0.43601   0.89053   0.28461   0.00000  Uiso   1.00
O33    O     0.10947   0.43601   0.71539   0.00000  Uiso   1.00
O34    O     0.50000   0.00000   0.75000   0.00000  Uiso   1.00
O35    O     0.89053   0.56399   0.28461   0.00000  Uiso   1.00
O36    O     0.43601   0.89053   0.71539   0.00000  Uiso   1.00
O37    O     0.56399   0.10947   0.28461   0.00000  Uiso   1.00
O38    O     0.89053   0.56399   0.71539   0.00000  Uiso   1.00
O39    O     0.10947   0.43601   0.28461   0.00000  Uiso   1.00
O40    O     0.43601   0.10947   0.28461   0.00000  Uiso   1.00
O41    O     0.56399   0.89053   0.71539   0.00000  Uiso   1.00
O42    O     0.89053   0.43601   0.28461   0.00000  Uiso   1.00
O43    O     0.10947   0.56399   0.71539   0.00000  Uiso   1.00
O44    O     0.56399   0.89053   0.28461   0.00000  Uiso   1.00
O45    O     0.00000   0.45454   0.11798   0.00000  Uiso   1.00
O46    O     0.43601   0.10947   0.71539   0.00000  Uiso   1.00
O47    O     0.10947   0.56399   0.28461   0.00000  Uiso   1.00
O48    O     0.89053   0.43601   0.71539   0.00000  Uiso   1.00
O49    O     0.00000   0.54546   0.88202   0.00000  Uiso   1.00
O50    O     0.45454  -0.00000   0.11798   0.00000  Uiso   1.00
O51    O     0.54546   0.00000   0.88202   0.00000  Uiso   1.00
O52    O     0.00000   0.54546   0.11798   0.00000  Uiso   1.00
Zn1    Zn    0.06497   0.50000   0.29947   0.00000  Uiso   1.00
Zn2    Zn    0.43503  -0.00000   0.20053   0.00000  Uiso   1.00
Zn3    Zn    0.00000   0.43503   0.79947   0.00000  Uiso   1.00
Zn4    Zn    0.00000   0.56497   0.20053   0.00000  Uiso   1.00
Zn5    Zn    0.43503  -0.00000   0.79947   0.00000  Uiso   1.00
Zn6    Zn    0.56497  -0.00000   0.20053   0.00000  Uiso   1.00
Zn7    Zn    0.00000   0.56497   0.79947   0.00000  Uiso   1.00
Zn8    Zn    0.00000   0.43503   0.20053   0.00000  Uiso   1.00
Zn9    Zn    0.93503   0.50000   0.70053   0.00000  Uiso   1.00
Zn10   Zn    0.50000   0.93503   0.29947   0.00000  Uiso   1.00
Zn11   Zn    0.50000   0.06497   0.70053   0.00000  Uiso   1.00
Zn12   Zn    0.93503   0.50000   0.29947   0.00000  Uiso   1.00
Zn13   Zn    0.06497   0.50000   0.70053   0.00000  Uiso   1.00
Zn14   Zn    0.50000   0.06497   0.29947   0.00000  Uiso   1.00
Zn15   Zn    0.50000   0.93503   0.70053   0.00000  Uiso   1.00
Zn16   Zn    0.56497  -0.00000   0.79947   0.00000  Uiso   1.00
loop_
_geom_bond_atom_site_label_1
_geom_bond_atom_site_label_2
_geom_bond_distance
_geom_bond_site_symmetry_2
_ccdc_geom_bond_type
C1     C24     1.465   .     S
C1     C73     1.397   .     A
C1     C102    1.396   .     A
C2     C83     1.397   .     A
C2     C52     1.465   .     S
C2     C94     1.396   .     A
C3     C27     1.415   .     A
C3     N13     1.434   .     S
C3     C94     1.396   .     A
C4     C32     1.416   .     A
C4     N14     1.433   .     S
C4     C95     1.397   .     A
C5     C33     1.415   .     A
C5     C97     1.396   .     A
C5     N15     1.433   .     S
C6     C30     1.416   .     A
C6     C98     1.396   .     A
C6     N16     1.433   .     S
C7     C99     1.396   .     A
C7     N17     1.434   .     S
C7     C31     1.415   .     A
C8     C19     1.418   .     A
C8     C100    1.399   .     A
C8     N18     1.438   .     S
C9     N19     1.433   .     S
C9     C20     1.415   .     A
C9     C101    1.396   .     A
C10    C102    1.396   .     A
C10    N20     1.434   .     S
C10    C17     1.415   .     A
C11    N21     1.438   .     S
C11    C18     1.418   .     A
C11    C103    1.400   .     A
C12    C23     1.416   .     A
C12    C104    1.396   .     A
C12    N22     1.433   .     S
C13    C91     1.397   .     A
C13    C84     1.396   .     A
C13    C41     1.465   .     S
C14    C105    1.396   .     A
C14    C25     1.415   .     A
C14    N24     1.433   .     S
C15    N25     1.433   .     S
C15    C106    1.397   .     A
C15    C21     1.415   .     A
C16    N26     1.438   .     S
C16    C22     1.418   .     A
C16    C108    1.400   .     A
C17    C109    1.418   .     A
C17    C66     1.475   .     S
C18    C65     1.476   .     S
C18    C110    1.415   .     A
C19    C111    1.418   .     A
C19    C72     1.476   .     S
C20    C71     1.475   .     S
C20    C112    1.418   .     A
C21    C113    1.415   .     A
C21    C70     1.475   .     S
C22    C69     1.475   .     S
C22    C114    1.415   .     A
C23    C68     1.476   .     S
C23    C115    1.418   .     A
C24    C92     1.396   .     A
C24    C86     1.397   .     A
C25    C67     1.475   .     S
C25    C116    1.418   .     A
C26    C117    1.416   .     A
C26    C57     1.476   .     S
C26    C128    1.416   .     A
C27    C56     1.476   .     S
C27    C119    1.418   .     A
C28    C120    1.415   .     A
C28    C126    1.418   .     A
C28    C64     1.475   .     S
C29    C127    1.416   .     A
C29    C121    1.418   .     A
C29    C62     1.477   .     S
C30    C122    1.416   .     A
C30    C61     1.476   .     S
C31    C60     1.475   .     S
C31    C123    1.418   .     A
C32    C59     1.476   .     S
C32    C124    1.416   .     A
C33    C125    1.418   .     A
C33    C58     1.476   .     S
C34    C87     1.397   .     A
C34    C107    1.465   .     S
C34    C98     1.397   .     A
C35    C96     1.465   .     S
C35    C99     1.396   .     A
C35    C88     1.397   .     A
C36    C89     1.397   .     A
C36    C95     1.397   .     A
C36    C85     1.465   .     S
C37    C74     1.465   .     S
C37    C90     1.397   .     A
C37    C97     1.396   .     A
C38    C55     1.419   .     S
C38    C39     1.197   .     S
C39    C54     1.419   .     S
C40    C42     1.197   .     T
C40    C53     1.419   .     S
C41    C75     1.396   .     A
C41    C103    1.397   .     A
C42    C51     1.419   .     S
C43    C50     1.419   .     S
C43    C44     1.197   1_556 S
C44    C49     1.419   .     S
C44    C43     1.197   1_554 S
C45    C48     1.419   .     S
C45    C46     1.197   1_556 S
C46    C45     1.197   1_554 S
C46    C47     1.419   .     S
C47    O45     1.278   .     A
C47    O52     1.278   .     S
C48    O49     1.278   .     A
C48    O2      1.278   .     S
C49    O50     1.278   .     A
C49    O3      1.278   .     A
C50    O4      1.278   .     S
C50    O51     1.278   .     S
C51    O5      1.278   1_545 A
C51    O9      1.278   .     S
C52    C100    1.396   .     A
C52    C76     1.396   .     A
C53    O6      1.278   .     A
C53    O10     1.278   1_545 S
C54    O11     1.278   .     A
C54    O7      1.278   1_455 S
C55    O13     1.278   1_455 A
C55    O8      1.278   .     S
C56    O14     1.278   .     A
C56    O47     1.279   .     A
C57    O15     1.279   .     A
C57    O48     1.279   .     A
C58    O16     1.279   .     A
C58    O44     1.279   .     A
C59    O46     1.279   .     A
C59    O17     1.279   .     A
C60    O18     1.278   .     A
C60    O42     1.278   .     A
C61    O43     1.279   .     A
C61    O19     1.279   .     A
C62    O40     1.279   .     A
C62    O20     1.279   .     A
C63    C118    1.465   .     S
C63    C101    1.396   .     A
C63    C77     1.397   .     A
C64    O41     1.278   .     A
C64    O21     1.279   .     A
C65    O22     1.279   .     A
C65    O38     1.279   .     A
C66    O39     1.278   .     A
C66    O24     1.278   .     A
C67    O25     1.278   .     A
C67    O36     1.278   .     A
C68    O26     1.279   .     A
C68    O37     1.279   .     A
C69    O27     1.278   .     A
C69    O33     1.278   .     A
C70    O35     1.278   .     A
C70    O28     1.278   .     A
C71    O31     1.278   .     A
C71    O29     1.278   .     A
C72    O30     1.279   .     A
C72    O32     1.279   .     A
C73    H1      1.084   .     S
C73    C109    1.400   .     A
C74    C78     1.397   .     A
C74    C106    1.397   .     A
C75    H12     1.084   .     S
C75    C110    1.396   .     A
C76    H23     1.084   .     S
C76    C111    1.399   .     A
C77    C112    1.399   .     A
C77    H34     1.084   .     S
C78    C113    1.397   .     A
C78    H45     1.084   .     S
C79    C85     1.396   .     A
C79    H56     1.084   .     S
C79    C114    1.396   .     A
C80    C115    1.400   .     A
C80    H67     1.084   .     S
C80    C96     1.397   .     A
C81    C116    1.400   .     A
C81    H78     1.084   .     S
C81    C107    1.397   .     A
C82    C118    1.397   .     A
C82    C117    1.397   .     A
C82    H89     1.084   .     S
C83    C119    1.400   .     A
C83    H2      1.084   .     S
C84    C120    1.396   .     A
C84    H3      1.084   .     S
C85    C108    1.397   .     A
C86    C121    1.400   .     A
C86    H4      1.084   .     S
C87    C122    1.397   .     A
C87    H5      1.084   .     S
C88    H6      1.084   .     S
C88    C123    1.400   .     A
C89    H7      1.084   .     S
C89    C124    1.397   .     A
C90    C125    1.400   .     A
C90    H8      1.084   .     S
C91    C126    1.400   .     A
C91    H9      1.084   .     S
C92    C127    1.396   .     A
C92    H10     1.084   .     S
C93    H11     1.084   .     S
C93    C128    1.397   .     A
C93    C118    1.397   .     A
C94    H13     1.084   .     S
C95    H14     1.084   .     S
C96    C104    1.396   .     A
C97    H15     1.084   .     S
C98    H16     1.084   .     S
C99    H17     1.084   .     S
C100   H18     1.084   .     S
C101   H19     1.084   .     S
C102   H20     1.084   .     S
C103   H21     1.084   .     S
C104   H22     1.084   .     S
C105   C107    1.396   .     A
C105   H24     1.084   .     S
C106   H25     1.084   .     S
C108   H26     1.084   .     S
C109   N1      1.438   .     S
C110   N12     1.433   .     S
C111   N23     1.438   .     S
C112   N27     1.438   .     S
C113   N28     1.433   .     S
C114   N29     1.433   .     S
C115   N30     1.438   .     S
C116   N31     1.438   .     S
C117   N32     1.433   .     S
C119   N2      1.439   .     S
C120   N3      1.433   .     S
C121   N4      1.438   .     S
C122   N5      1.433   .     S
C123   N6      1.438   .     S
C124   N7      1.433   .     S
C125   N8      1.438   .     S
C126   N9      1.438   .     S
C127   N10     1.433   .     S
C128   N11     1.433   .     S
H27    N1      1.046   .     S
H28    N1      1.046   .     S
H29    N12     1.046   .     S
H30    N12     1.046   .     S
H31    N23     1.046   .     S
H32    N23     1.046   .     S
H33    N27     1.046   .     S
H35    N27     1.046   .     S
H36    N28     1.046   .     S
H37    N28     1.046   .     S
H38    N29     1.046   .     S
H39    N29     1.046   .     S
H40    N30     1.046   .     S
H41    N30     1.046   .     S
H42    N31     1.046   .     S
H43    N31     1.046   .     S
H44    N32     1.046   .     S
H46    N32     1.046   .     S
H47    N2      1.046   .     S
H48    N2      1.046   .     S
H49    N3      1.046   .     S
H50    N3      1.046   .     S
H51    N4      1.046   .     S
H52    N4      1.046   .     S
H53    N5      1.046   .     S
H54    N5      1.046   .     S
H55    N6      1.046   .     S
H57    N6      1.046   .     S
H58    N7      1.046   .     S
H59    N7      1.046   .     S
H60    N8      1.046   .     S
H61    N8      1.046   .     S
H62    N9      1.046   .     S
H63    N9      1.046   .     S
H64    N10     1.046   .     S
H65    N10     1.046   .     S
H66    N11     1.046   .     S
H68    N11     1.046   .     S
H69    N13     1.046   .     S
H70    N13     1.046   .     S
H71    N14     1.046   .     S
H72    N14     1.046   .     S
H73    N15     1.046   .     S
H74    N15     1.046   .     S
H75    N16     1.046   .     S
H76    N16     1.046   .     S
H77    N17     1.046   .     S
H79    N17     1.046   .     S
H80    N18     1.046   .     S
H81    N18     1.046   .     S
H82    N19     1.046   .     S
H83    N19     1.046   .     S
H84    N20     1.046   .     S
H85    N20     1.046   .     S
H86    N21     1.046   .     S
H87    N21     1.046   .     S
H88    N22     1.046   .     S
H90    N22     1.046   .     S
H91    N24     1.046   .     S
H92    N24     1.046   .     S
H93    N25     1.046   .     S
H94    N25     1.046   .     S
H95    N26     1.046   .     S
H96    N26     1.046   .     S
O1     Zn4     1.940   .     S
O1     Zn1     1.940   .     S
O1     Zn8     1.940   .     S
O1     Zn12    1.940   1_455 S
O2     Zn3     1.910   .     S
O3     Zn6     1.910   .     S
O4     Zn5     1.910   .     S
O5     C51     1.278   1_565 A
O5     Zn15    1.910   .     S
O6     Zn14    1.910   .     S
O7     Zn9     1.910   .     S
O7     C54     1.278   1_655 S
O8     Zn1     1.910   .     S
O9     Zn11    1.910   .     S
O10    Zn10    1.910   .     S
O10    C53     1.278   1_565 S
O11    Zn13    1.910   .     S
O12    Zn13    1.940   .     S
O12    Zn3     1.940   .     S
O12    Zn7     1.940   .     S
O12    Zn9     1.940   1_455 S
O13    C55     1.278   1_655 A
O13    Zn12    1.910   .     S
O14    Zn4     1.939   .     S
O15    Zn3     1.939   1_655 S
O16    Zn6     1.939   1_565 S
O17    Zn5     1.939   .     S
O18    Zn8     1.939   1_655 S
O19    Zn7     1.939   .     S
O20    Zn2     1.939   .     S
O21    Zn16    1.939   1_565 S
O22    Zn7     1.939   1_655 S
O23    Zn14    1.940   .     S
O23    Zn2     1.940   .     S
O23    Zn6     1.940   .     S
O23    Zn10    1.940   1_545 S
O24    Zn8     1.939   .     S
O25    Zn5     1.939   1_565 S
O26    Zn6     1.939   .     S
O27    Zn3     1.939   .     S
O28    Zn4     1.939   1_655 S
O29    Zn16    1.939   .     S
O30    Zn2     1.939   1_565 S
O31    Zn11    1.939   .     S
O32    Zn10    1.939   .     S
O33    Zn13    1.939   .     S
O34    Zn11    1.940   .     S
O34    Zn5     1.940   .     S
O34    Zn15    1.940   1_545 S
O34    Zn16    1.940   .     S
O35    Zn12    1.939   .     S
O36    Zn15    1.939   .     S
O37    Zn14    1.939   .     S
O38    Zn9     1.939   .     S
O39    Zn1     1.939   .     S
O40    Zn14    1.939   .     S
O41    Zn15    1.939   .     S
O42    Zn12    1.939   .     S
O43    Zn13    1.939   .     S
O44    Zn10    1.939   .     S
O45    Zn8     1.910   .     S
O46    Zn11    1.939   .     S
O47    Zn1     1.939   .     S
O48    Zn9     1.939   .     S
O49    Zn7     1.910   .     S
O50    Zn2     1.910   .     S
O51    Zn16    1.910   .     S
O52    Zn4     1.910   .     S
Zn2    O30     1.939   1_545 S
Zn3    O15     1.939   1_455 S
Zn4    O28     1.939   1_455 S
Zn5    O25     1.939   1_545 S
Zn6    O16     1.939   1_545 S
Zn7    O22     1.939   1_455 S
Zn8    O18     1.939   1_455 S
Zn9    O12     1.940   1_655 S
Zn10   O23     1.940   1_565 S
Zn12   O1      1.940   1_655 S
Zn15   O34     1.940   1_565 S
Zn16   O21     1.939   1_545 S
