data_str_m1_o2_o5_pcu_sym.34
_audit_creation_date              2020-01-03
_audit_creation_method            'Materials Studio'
_symmetry_space_group_name_H-M    'P1'
_symmetry_Int_Tables_number       1
_symmetry_cell_setting            triclinic
loop_
_symmetry_equiv_pos_as_xyz
  x,y,z
_cell_length_a                    24.7058
_cell_length_b                    24.6862
_cell_length_c                    22.2794
_cell_angle_alpha                 90.4346
_cell_angle_beta                  89.8850
_cell_angle_gamma                 89.8958
loop_
_atom_site_label
_atom_site_type_symbol
_atom_site_fract_x
_atom_site_fract_y
_atom_site_fract_z
_atom_site_U_iso_or_equiv
_atom_site_adp_type
_atom_site_occupancy
C1     C     0.21903   0.26299   0.24922   0.00000  Uiso   1.00
C2     C     0.22609   0.73014   0.25033   0.00000  Uiso   1.00
C3     C     0.17084   0.66345   0.30487   0.00000  Uiso   1.00
C4     C     0.32849   0.15803   0.69753   0.00000  Uiso   1.00
C5     C     0.66917   0.83830   0.30334   0.00000  Uiso   1.00
C6     C     0.17566   0.65715   0.69821   0.00000  Uiso   1.00
C7     C     0.84033   0.33019   0.30321   0.00000  Uiso   1.00
C8     C     0.33060   0.83883   0.30339   0.00000  Uiso   1.00
C9     C     0.65571   0.17696   0.69879   0.00000  Uiso   1.00
C10    C     0.16521   0.33323   0.30263   0.00000  Uiso   1.00
C11    C     0.83930   0.67376   0.70549   0.00000  Uiso   1.00
C12    C     0.66398   0.16982   0.30555   0.00000  Uiso   1.00
C13    C     0.72641   0.77002   0.76418   0.00000  Uiso   1.00
C14    C     0.33008   0.83570   0.69528   0.00000  Uiso   1.00
C15    C     0.84020   0.67491   0.30583   0.00000  Uiso   1.00
C16    C     0.17435   0.33752   0.69490   0.00000  Uiso   1.00
C17    C     0.14581   0.35298   0.24832   0.00000  Uiso   1.00
C18    C     0.85155   0.64347   0.75597   0.00000  Uiso   1.00
C19    C     0.35373   0.85376   0.24879   0.00000  Uiso   1.00
C20    C     0.64574   0.14786   0.75174   0.00000  Uiso   1.00
C21    C     0.85529   0.64867   0.25221   0.00000  Uiso   1.00
C22    C     0.14603   0.35242   0.74844   0.00000  Uiso   1.00
C23    C     0.64780   0.14562   0.25150   0.00000  Uiso   1.00
C24    C     0.26283   0.21832   0.24820   0.00000  Uiso   1.00
C25    C     0.35396   0.85319   0.74882   0.00000  Uiso   1.00
C26    C     0.85316   0.35415   0.74925   0.00000  Uiso   1.00
C27    C     0.14573   0.64734   0.25135   0.00000  Uiso   1.00
C28    C     0.64512   0.85203   0.75371   0.00000  Uiso   1.00
C29    C     0.35251   0.14507   0.25163   0.00000  Uiso   1.00
C30    C     0.14760   0.64599   0.75130   0.00000  Uiso   1.00
C31    C     0.85407   0.35333   0.24872   0.00000  Uiso   1.00
C32    C     0.35362   0.14610   0.75183   0.00000  Uiso   1.00
C33    C     0.64775   0.85470   0.24851   0.00000  Uiso   1.00
C34    C     0.23190   0.72482   0.75162   0.00000  Uiso   1.00
C35    C     0.77577   0.26927   0.25106   0.00000  Uiso   1.00
C36    C     0.27030   0.22578   0.75026   0.00000  Uiso   1.00
C37    C     0.74076   0.78530   0.25074   0.00000  Uiso   1.00
C38    C     0.99996   0.50000   0.47323   0.00000  Uiso   1.00
C39    C     0.00004   0.50000   0.52676   0.00000  Uiso   1.00
C40    C     0.49999   0.00016   0.47324   0.00000  Uiso   1.00
C41    C     0.77303   0.72794   0.76452   0.00000  Uiso   1.00
C42    C     0.49999   0.99984   0.52676   0.00000  Uiso   1.00
C43    C     0.49996  -0.00001   0.97323   0.00000  Uiso   1.00
C44    C     0.50004  -0.00001   0.02676   0.00000  Uiso   1.00
C45    C     0.99999   0.50016   0.97324   0.00000  Uiso   1.00
C46    C    -0.00001   0.49984   0.02676   0.00000  Uiso   1.00
C47    C    -0.00000   0.49988   0.09019   0.00000  Uiso   1.00
C48    C    -0.00001   0.50012   0.90981   0.00000  Uiso   1.00
C49    C     0.50003  -0.00000   0.09020   0.00000  Uiso   1.00
C50    C     0.49997  -0.00001   0.90979   0.00000  Uiso   1.00
C51    C     0.49999   0.99988   0.59019   0.00000  Uiso   1.00
C52    C     0.27054   0.77431   0.25023   0.00000  Uiso   1.00
C53    C     0.50000   0.00012   0.40981   0.00000  Uiso   1.00
C54    C     0.00003   0.50000   0.59020   0.00000  Uiso   1.00
C55    C     0.99997   0.50000   0.40980   0.00000  Uiso   1.00
C56    C     0.10437   0.60514   0.25083   0.00000  Uiso   1.00
C57    C     0.89583   0.39485   0.74883   0.00000  Uiso   1.00
C58    C     0.60410   0.89450   0.24825   0.00000  Uiso   1.00
C59    C     0.39599   0.10533   0.75161   0.00000  Uiso   1.00
C60    C     0.89472   0.39589   0.24859   0.00000  Uiso   1.00
C61    C     0.10513   0.60467   0.75060   0.00000  Uiso   1.00
C62    C     0.39482   0.10429   0.25108   0.00000  Uiso   1.00
C63    C     0.72417   0.23270   0.75193   0.00000  Uiso   1.00
C64    C     0.60499   0.89523   0.74973   0.00000  Uiso   1.00
C65    C     0.89446   0.60364   0.75191   0.00000  Uiso   1.00
C66    C     0.10522   0.39567   0.24875   0.00000  Uiso   1.00
C67    C     0.39468   0.89586   0.74859   0.00000  Uiso   1.00
C68    C     0.60515   0.10451   0.25069   0.00000  Uiso   1.00
C69    C     0.10440   0.39458   0.74878   0.00000  Uiso   1.00
C70    C     0.89576   0.60540   0.25121   0.00000  Uiso   1.00
C71    C     0.60451   0.10523   0.75082   0.00000  Uiso   1.00
C72    C     0.39574   0.89494   0.24907   0.00000  Uiso   1.00
C73    C     0.19331   0.28130   0.19526   0.00000  Uiso   1.00
C74    C     0.78483   0.74086   0.24942   0.00000  Uiso   1.00
C75    C     0.78832   0.69654   0.81627   0.00000  Uiso   1.00
C76    C     0.29868   0.78788   0.19600   0.00000  Uiso   1.00
C77    C     0.71321   0.20137   0.80408   0.00000  Uiso   1.00
C78    C     0.79913   0.71118   0.19504   0.00000  Uiso   1.00
C79    C     0.19492   0.28294   0.80252   0.00000  Uiso   1.00
C80    C     0.71755   0.19494   0.19790   0.00000  Uiso   1.00
C81    C     0.30381   0.78588   0.80481   0.00000  Uiso   1.00
C82    C     0.78536   0.30454   0.80535   0.00000  Uiso   1.00
C83    C     0.19637   0.71568   0.19718   0.00000  Uiso   1.00
C84    C     0.70716   0.80011   0.81610   0.00000  Uiso   1.00
C85    C     0.22727   0.26974   0.74966   0.00000  Uiso   1.00
C86    C     0.29248   0.20314   0.19449   0.00000  Uiso   1.00
C87    C     0.20128   0.71288   0.80422   0.00000  Uiso   1.00
C88    C     0.78908   0.29704   0.19676   0.00000  Uiso   1.00
C89    C     0.30070   0.21483   0.80349   0.00000  Uiso   1.00
C90    C     0.72225   0.81009   0.19655   0.00000  Uiso   1.00
C91    C     0.69884   0.78008   0.70865   0.00000  Uiso   1.00
C92    C     0.27848   0.19086   0.30220   0.00000  Uiso   1.00
C93    C     0.79625   0.28946   0.69754   0.00000  Uiso   1.00
C94    C     0.21276   0.70112   0.30363   0.00000  Uiso   1.00
C95    C     0.28385   0.19361   0.69741   0.00000  Uiso   1.00
C96    C     0.73171   0.22478   0.25120   0.00000  Uiso   1.00
C97    C     0.71283   0.80156   0.30540   0.00000  Uiso   1.00
C98    C     0.21933   0.69364   0.69890   0.00000  Uiso   1.00
C99    C     0.80423   0.28567   0.30463   0.00000  Uiso   1.00
C100   C     0.28623   0.80285   0.30408   0.00000  Uiso   1.00
C101   C     0.69230   0.22063   0.69973   0.00000  Uiso   1.00
C102   C     0.20392   0.29138   0.30386   0.00000  Uiso   1.00
C103   C     0.80349   0.71790   0.71011   0.00000  Uiso   1.00
C104   C     0.70241   0.21160   0.30457   0.00000  Uiso   1.00
C105   C     0.28890   0.79676   0.69720   0.00000  Uiso   1.00
C106   C     0.81160   0.72409   0.30344   0.00000  Uiso   1.00
C107   C     0.27559   0.76925   0.75146   0.00000  Uiso   1.00
C108   C     0.21692   0.30090   0.69685   0.00000  Uiso   1.00
C109   C     0.16237   0.32840   0.19446   0.00000  Uiso   1.00
C110   C     0.82659   0.65503   0.81134   0.00000  Uiso   1.00
C111   C     0.33665   0.82979   0.19501   0.00000  Uiso   1.00
C112   C     0.67290   0.16204   0.80508   0.00000  Uiso   1.00
C113   C     0.83755   0.66889   0.19729   0.00000  Uiso   1.00
C114   C     0.15779   0.32581   0.80244   0.00000  Uiso   1.00
C115   C     0.67375   0.15861   0.19795   0.00000  Uiso   1.00
C116   C     0.34021   0.83000   0.80345   0.00000  Uiso   1.00
C117   C     0.82966   0.34075   0.80388   0.00000  Uiso   1.00
C118   C     0.76858   0.27635   0.75184   0.00000  Uiso   1.00
C119   C     0.15920   0.67255   0.19766   0.00000  Uiso   1.00
C120   C     0.66725   0.84010   0.81017   0.00000  Uiso   1.00
C121   C     0.33389   0.16457   0.19680   0.00000  Uiso   1.00
C122   C     0.16252   0.67204   0.80497   0.00000  Uiso   1.00
C123   C     0.83039   0.33584   0.19523   0.00000  Uiso   1.00
C124   C     0.33804   0.17262   0.80553   0.00000  Uiso   1.00
C125   C     0.67327   0.83841   0.19489   0.00000  Uiso   1.00
C126   C     0.66162   0.82224   0.70293   0.00000  Uiso   1.00
C127   C     0.32574   0.15995   0.30477   0.00000  Uiso   1.00
C128   C     0.83579   0.33001   0.69576   0.00000  Uiso   1.00
F1     F     0.19217   0.25218   0.14348   0.00000  Uiso   1.00
F2     F     0.19852   0.74422   0.14563   0.00000  Uiso   1.00
F3     F     0.72390   0.79243   0.87422   0.00000  Uiso   1.00
F4     F     0.28249   0.22230   0.13864   0.00000  Uiso   1.00
F5     F     0.20595   0.74100   0.85625   0.00000  Uiso   1.00
F6     F     0.76234   0.29092   0.14424   0.00000  Uiso   1.00
F7     F     0.29730   0.24584   0.85480   0.00000  Uiso   1.00
F8     F     0.75376   0.81519   0.14674   0.00000  Uiso   1.00
F9     F     0.70433   0.74753   0.65947   0.00000  Uiso   1.00
F10    F     0.24575   0.18705   0.35104   0.00000  Uiso   1.00
F11    F     0.78879   0.26306   0.64482   0.00000  Uiso   1.00
F12    F     0.77204   0.70697   0.87450   0.00000  Uiso   1.00
F13    F     0.24080   0.70555   0.35551   0.00000  Uiso   1.00
F14    F     0.25302   0.19387   0.64658   0.00000  Uiso   1.00
F15    F     0.72420   0.78167   0.36085   0.00000  Uiso   1.00
F16    F     0.25017   0.69493   0.64864   0.00000  Uiso   1.00
F17    F     0.80167   0.25913   0.35760   0.00000  Uiso   1.00
F18    F     0.25848   0.80070   0.35661   0.00000  Uiso   1.00
F19    F     0.69295   0.25216   0.65004   0.00000  Uiso   1.00
F20    F     0.22665   0.28213   0.35835   0.00000  Uiso   1.00
F21    F     0.80343   0.75276   0.66320   0.00000  Uiso   1.00
F22    F     0.70756   0.23905   0.35685   0.00000  Uiso   1.00
F23    F     0.29341   0.76073   0.14337   0.00000  Uiso   1.00
F24    F     0.26221   0.79004   0.64479   0.00000  Uiso   1.00
F25    F     0.81839   0.75712   0.35197   0.00000  Uiso   1.00
F26    F     0.24931   0.29849   0.64594   0.00000  Uiso   1.00
F27    F     0.74157   0.20613   0.85574   0.00000  Uiso   1.00
F28    F     0.77683   0.71977   0.13983   0.00000  Uiso   1.00
F29    F     0.19678   0.25280   0.85377   0.00000  Uiso   1.00
F30    F     0.74751   0.19563   0.14689   0.00000  Uiso   1.00
F31    F     0.29984   0.76022   0.85819   0.00000  Uiso   1.00
F32    F     0.75951   0.30065   0.85884   0.00000  Uiso   1.00
H1     H     0.14707   0.39253   0.13811   0.00000  Uiso   1.00
H2     H     0.87642   0.67504   0.11605   0.00000  Uiso   1.00
H3     H     0.15345   0.37195   0.87987   0.00000  Uiso   1.00
H4     H     0.11795   0.31049   0.88325   0.00000  Uiso   1.00
H5     H     0.63175   0.15934   0.11845   0.00000  Uiso   1.00
H6     H     0.68992   0.11810   0.11826   0.00000  Uiso   1.00
H7     H     0.39431   0.82313   0.87257   0.00000  Uiso   1.00
H8     H     0.33479   0.85802   0.89000   0.00000  Uiso   1.00
H9     H     0.82237   0.39455   0.87426   0.00000  Uiso   1.00
H10    H     0.85887   0.33556   0.88986   0.00000  Uiso   1.00
H11    H     0.16109   0.63046   0.11837   0.00000  Uiso   1.00
H12    H     0.10785   0.33561   0.12597   0.00000  Uiso   1.00
H13    H     0.11993   0.68772   0.11797   0.00000  Uiso   1.00
H14    H     0.61766   0.84664   0.88417   0.00000  Uiso   1.00
H15    H     0.68043   0.88054   0.89134   0.00000  Uiso   1.00
H16    H     0.38030   0.17652   0.11997   0.00000  Uiso   1.00
H17    H     0.32652   0.12724   0.11477   0.00000  Uiso   1.00
H18    H     0.14283   0.61400   0.86712   0.00000  Uiso   1.00
H19    H     0.10268   0.67240   0.86965   0.00000  Uiso   1.00
H20    H     0.84347   0.40051   0.13881   0.00000  Uiso   1.00
H21    H     0.88195   0.34260   0.12360   0.00000  Uiso   1.00
H22    H     0.40453   0.15823   0.85967   0.00000  Uiso   1.00
H23    H     0.84428   0.58425   0.85716   0.00000  Uiso   1.00
H24    H     0.34374   0.12625   0.88145   0.00000  Uiso   1.00
H25    H     0.60918   0.84634   0.13613   0.00000  Uiso   1.00
H26    H     0.66420   0.88937   0.12290   0.00000  Uiso   1.00
H27    H     0.64735   0.87687   0.63524   0.00000  Uiso   1.00
H28    H     0.60395   0.82122   0.63601   0.00000  Uiso   1.00
H29    H     0.34415   0.09698   0.36167   0.00000  Uiso   1.00
H30    H     0.37845   0.15716   0.37629   0.00000  Uiso   1.00
H31    H     0.90135   0.34293   0.63935   0.00000  Uiso   1.00
H32    H     0.84138   0.37816   0.62092   0.00000  Uiso   1.00
H33    H     0.11129   0.64579   0.36665   0.00000  Uiso   1.00
H34    H     0.87710   0.64181   0.88231   0.00000  Uiso   1.00
H35    H     0.16990   0.60591   0.37168   0.00000  Uiso   1.00
H36    H     0.32146   0.10204   0.62884   0.00000  Uiso   1.00
H37    H     0.35489   0.16170   0.61002   0.00000  Uiso   1.00
H38    H     0.67434   0.88824   0.37562   0.00000  Uiso   1.00
H39    H     0.63924   0.82945   0.38867   0.00000  Uiso   1.00
H40    H     0.12406   0.64541   0.62731   0.00000  Uiso   1.00
H41    H     0.19144   0.62835   0.61105   0.00000  Uiso   1.00
H42    H     0.89392   0.32475   0.37394   0.00000  Uiso   1.00
H43    H     0.83462   0.36217   0.38849   0.00000  Uiso   1.00
H44    H     0.33326   0.90083   0.36356   0.00000  Uiso   1.00
H45    H     0.40098   0.85443   0.14253   0.00000  Uiso   1.00
H46    H     0.34175   0.83732   0.39626   0.00000  Uiso   1.00
H47    H     0.64045   0.12618   0.62745   0.00000  Uiso   1.00
H48    H     0.62490   0.19387   0.61285   0.00000  Uiso   1.00
H49    H     0.11553   0.33218   0.37675   0.00000  Uiso   1.00
H50    H     0.17676   0.36687   0.38688   0.00000  Uiso   1.00
H51    H     0.89366   0.69116   0.63807   0.00000  Uiso   1.00
H52    H     0.83753   0.65297   0.61616   0.00000  Uiso   1.00
H53    H     0.63973   0.10951   0.36180   0.00000  Uiso   1.00
H54    H     0.60539   0.16922   0.36978   0.00000  Uiso   1.00
H55    H     0.34123   0.90029   0.63871   0.00000  Uiso   1.00
H56    H     0.33778   0.87739   0.12096   0.00000  Uiso   1.00
H57    H     0.38207   0.84357   0.62422   0.00000  Uiso   1.00
H58    H     0.90014   0.65102   0.36326   0.00000  Uiso   1.00
H59    H     0.83825   0.62030   0.37413   0.00000  Uiso   1.00
H60    H     0.11691   0.35324   0.62894   0.00000  Uiso   1.00
H61    H     0.17569   0.39615   0.62824   0.00000  Uiso   1.00
H62    H     0.61610   0.13877   0.86959   0.00000  Uiso   1.00
H63    H     0.67976   0.10466   0.87292   0.00000  Uiso   1.00
H64    H     0.82901   0.62202   0.12084   0.00000  Uiso   1.00
N1     N     0.14676   0.34994   0.13674   0.00000  Uiso   1.00
N2     N     0.13378   0.65463   0.14283   0.00000  Uiso   1.00
N3     N     0.64798   0.86922   0.86271   0.00000  Uiso   1.00
N4     N     0.35790   0.14433   0.14176   0.00000  Uiso   1.00
N5     N     0.14149   0.65609   0.86246   0.00000  Uiso   1.00
N6     N     0.84447   0.35806   0.13781   0.00000  Uiso   1.00
N7     N     0.36213   0.16031   0.86219   0.00000  Uiso   1.00
N8     N     0.65130   0.85112   0.13695   0.00000  Uiso   1.00
N9     N     0.64339   0.83544   0.64329   0.00000  Uiso   1.00
N10    N     0.34201   0.13917   0.36243   0.00000  Uiso   1.00
N11    N     0.85861   0.34241   0.63833   0.00000  Uiso   1.00
N12    N     0.84084   0.62593   0.86537   0.00000  Uiso   1.00
N13    N     0.15342   0.64417   0.36262   0.00000  Uiso   1.00
N14    N     0.34855   0.13210   0.64343   0.00000  Uiso   1.00
N15    N     0.64676   0.86042   0.35792   0.00000  Uiso   1.00
N16    N     0.16063   0.62891   0.64378   0.00000  Uiso   1.00
N17    N     0.86448   0.35111   0.35730   0.00000  Uiso   1.00
N18    N     0.35037   0.86186   0.35930   0.00000  Uiso   1.00
N19    N     0.62607   0.16312   0.64517   0.00000  Uiso   1.00
N20    N     0.14525   0.35707   0.35764   0.00000  Uiso   1.00
N21    N     0.86617   0.66074   0.64959   0.00000  Uiso   1.00
N22    N     0.64399   0.15211   0.36267   0.00000  Uiso   1.00
N23    N     0.36003   0.84438   0.13770   0.00000  Uiso   1.00
N24    N     0.34386   0.85780   0.63771   0.00000  Uiso   1.00
N25    N     0.85812   0.65652   0.36346   0.00000  Uiso   1.00
N26    N     0.15858   0.35756   0.63712   0.00000  Uiso   1.00
N27    N     0.65827   0.14044   0.86300   0.00000  Uiso   1.00
N28    N     0.85839   0.64508   0.14280   0.00000  Uiso   1.00
N29    N     0.13020   0.34318   0.85659   0.00000  Uiso   1.00
N30    N     0.65660   0.13280   0.14304   0.00000  Uiso   1.00
N31    N     0.36456   0.85007   0.85763   0.00000  Uiso   1.00
N32    N     0.84992   0.36542   0.85792   0.00000  Uiso   1.00
O1     O     0.00000   0.50000   0.25000   0.00000  Uiso   1.00
O2     O    -0.00000   0.45454   0.88202   0.00000  Uiso   1.00
O3     O     0.54546   0.00000   0.11798   0.00000  Uiso   1.00
O4     O     0.45454   0.00000   0.88202   0.00000  Uiso   1.00
O5     O     0.50000   0.95454   0.61798   0.00000  Uiso   1.00
O6     O     0.50000   0.04546   0.38202   0.00000  Uiso   1.00
O7     O     0.95454   0.50000   0.61798   0.00000  Uiso   1.00
O8     O     0.04546   0.50000   0.38202   0.00000  Uiso   1.00
O9     O     0.50000   0.04546   0.61798   0.00000  Uiso   1.00
O10    O     0.50000   0.95454   0.38202   0.00000  Uiso   1.00
O11    O     0.04546   0.50000   0.61798   0.00000  Uiso   1.00
O12    O     0.00000   0.50000   0.75000   0.00000  Uiso   1.00
O13    O     0.95454   0.50000   0.38202   0.00000  Uiso   1.00
O14    O     0.06399   0.60947   0.21539   0.00000  Uiso   1.00
O15    O     0.93601   0.39053   0.78461   0.00000  Uiso   1.00
O16    O     0.60947   0.93601   0.21539   0.00000  Uiso   1.00
O17    O     0.39053   0.06399   0.78461   0.00000  Uiso   1.00
O18    O     0.93601   0.39053   0.21539   0.00000  Uiso   1.00
O19    O     0.06399   0.60947   0.78461   0.00000  Uiso   1.00
O20    O     0.39053   0.06399   0.21539   0.00000  Uiso   1.00
O21    O     0.60947   0.93601   0.78461   0.00000  Uiso   1.00
O22    O     0.93601   0.60947   0.78461   0.00000  Uiso   1.00
O23    O     0.50000   0.00000   0.25000   0.00000  Uiso   1.00
O24    O     0.06399   0.39053   0.21539   0.00000  Uiso   1.00
O25    O     0.39053   0.93601   0.78461   0.00000  Uiso   1.00
O26    O     0.60947   0.06399   0.21539   0.00000  Uiso   1.00
O27    O     0.06399   0.39053   0.78461   0.00000  Uiso   1.00
O28    O     0.93601   0.60947   0.21539   0.00000  Uiso   1.00
O29    O     0.60947   0.06399   0.78461   0.00000  Uiso   1.00
O30    O     0.39053   0.93601   0.21539   0.00000  Uiso   1.00
O31    O     0.56399   0.10947   0.71539   0.00000  Uiso   1.00
O32    O     0.43601   0.89053   0.28461   0.00000  Uiso   1.00
O33    O     0.10947   0.43601   0.71539   0.00000  Uiso   1.00
O34    O     0.50000   0.00000   0.75000   0.00000  Uiso   1.00
O35    O     0.89053   0.56399   0.28461   0.00000  Uiso   1.00
O36    O     0.43601   0.89053   0.71539   0.00000  Uiso   1.00
O37    O     0.56399   0.10947   0.28461   0.00000  Uiso   1.00
O38    O     0.89053   0.56399   0.71539   0.00000  Uiso   1.00
O39    O     0.10947   0.43601   0.28461   0.00000  Uiso   1.00
O40    O     0.43601   0.10947   0.28461   0.00000  Uiso   1.00
O41    O     0.56399   0.89053   0.71539   0.00000  Uiso   1.00
O42    O     0.89053   0.43601   0.28461   0.00000  Uiso   1.00
O43    O     0.10947   0.56399   0.71539   0.00000  Uiso   1.00
O44    O     0.56399   0.89053   0.28461   0.00000  Uiso   1.00
O45    O    -0.00000   0.45454   0.11798   0.00000  Uiso   1.00
O46    O     0.43601   0.10947   0.71539   0.00000  Uiso   1.00
O47    O     0.10947   0.56399   0.28461   0.00000  Uiso   1.00
O48    O     0.89053   0.43601   0.71539   0.00000  Uiso   1.00
O49    O     0.00000   0.54546   0.88202   0.00000  Uiso   1.00
O50    O     0.45454   0.00000   0.11798   0.00000  Uiso   1.00
O51    O     0.54546   0.00000   0.88202   0.00000  Uiso   1.00
O52    O     0.00000   0.54546   0.11798   0.00000  Uiso   1.00
Zn1    Zn    0.06497   0.50000   0.29947   0.00000  Uiso   1.00
Zn2    Zn    0.43503   0.00000   0.20053   0.00000  Uiso   1.00
Zn3    Zn    0.00000   0.43503   0.79947   0.00000  Uiso   1.00
Zn4    Zn   -0.00000   0.56497   0.20053   0.00000  Uiso   1.00
Zn5    Zn    0.43503   0.00000   0.79947   0.00000  Uiso   1.00
Zn6    Zn    0.56497   0.00000   0.20053   0.00000  Uiso   1.00
Zn7    Zn    0.00000   0.56497   0.79947   0.00000  Uiso   1.00
Zn8    Zn    0.00000   0.43503   0.20053   0.00000  Uiso   1.00
Zn9    Zn    0.93503   0.50000   0.70053   0.00000  Uiso   1.00
Zn10   Zn    0.50000   0.93503   0.29947   0.00000  Uiso   1.00
Zn11   Zn    0.50000   0.06497   0.70053   0.00000  Uiso   1.00
Zn12   Zn    0.93503   0.50000   0.29947   0.00000  Uiso   1.00
Zn13   Zn    0.06497   0.50000   0.70053   0.00000  Uiso   1.00
Zn14   Zn    0.50000   0.06497   0.29947   0.00000  Uiso   1.00
Zn15   Zn    0.50000   0.93503   0.70053   0.00000  Uiso   1.00
Zn16   Zn    0.56497   0.00000   0.79947   0.00000  Uiso   1.00
loop_
_geom_bond_atom_site_label_1
_geom_bond_atom_site_label_2
_geom_bond_distance
_geom_bond_site_symmetry_2
_ccdc_geom_bond_type
C1     C24     1.544   .     S
C1     C73     1.436   .     A
C1     C102    1.448   .     A
C2     C83     1.438   .     A
C2     C52     1.549   .     S
C2     C94     1.430   .     A
C3     C27     1.401   .     A
C3     N13     1.441   .     S
C3     C94     1.394   .     A
C4     C32     1.394   .     A
C4     N14     1.447   .     S
C4     C95     1.409   .     A
C5     C33     1.395   .     A
C5     C97     1.409   .     A
C5     N15     1.439   .     S
C6     C30     1.399   .     A
C6     C98     1.407   .     A
C6     N16     1.444   .     S
C7     C99     1.417   .     A
C7     N17     1.438   .     S
C7     C31     1.388   .     A
C8     C19     1.395   .     A
C8     C100    1.412   .     A
C8     N18     1.451   .     S
C9     N19     1.442   .     S
C9     C20     1.407   .     A
C9     C101    1.408   .     A
C10    C102    1.407   .     A
C10    N20     1.441   .     S
C10    C17     1.394   .     A
C11    N21     1.444   .     S
C11    C18     1.389   .     A
C11    C103    1.405   .     A
C12    C23     1.400   .     A
C12    C104    1.403   .     A
C12    N22     1.436   .     S
C13    C91     1.437   .     A
C13    C84     1.449   .     A
C13    C41     1.550   .     S
C14    N24     1.438   .     S
C14    C105    1.402   .     A
C14    C25     1.398   .     A
C15    N25     1.436   .     S
C15    C106    1.405   .     A
C15    C21     1.404   .     A
C16    N26     1.437   .     S
C16    C22     1.427   .     A
C16    C108    1.387   .     A
C17    C109    1.401   .     A
C17    C66     1.453   .     S
C18    C65     1.447   .     S
C18    C110    1.405   .     A
C19    C111    1.399   .     A
C19    C72     1.454   .     S
C20    C71     1.466   .     S
C20    C112    1.408   .     A
C21    C113    1.396   .     A
C21    C70     1.462   .     S
C22    C69     1.462   .     S
C22    C114    1.406   .     A
C23    C68     1.464   .     S
C23    C115    1.393   .     A
C24    C92     1.439   .     A
C24    C86     1.448   .     A
C25    C67     1.458   .     S
C25    C116    1.391   .     A
C26    C117    1.390   .     A
C26    C57     1.458   .     S
C26    C128    1.397   .     A
C27    C56     1.461   .     S
C27    C119    1.392   .     A
C28    C120    1.406   .     A
C28    C126    1.404   .     A
C28    C64     1.458   .     S
C29    C127    1.401   .     A
C29    C121    1.395   .     A
C29    C62     1.450   .     S
C30    C122    1.404   .     A
C30    C61     1.465   .     S
C31    C60     1.455   .     S
C31    C123    1.395   .     A
C32    C59     1.451   .     S
C32    C124    1.412   .     A
C33    C125    1.405   .     A
C33    C58     1.458   .     S
C34    C87     1.427   .     A
C34    C107    1.540   .     S
C34    C98     1.434   .     A
C35    C96     1.548   .     S
C35    C99     1.442   .     A
C35    C88     1.433   .     A
C36    C89     1.432   .     A
C36    C95     1.453   .     A
C36    C85     1.518   .     S
C37    C90     1.433   .     A
C37    C74     1.544   .     S
C37    C97     1.452   .     A
C38    C55     1.413   .     S
C38    C39     1.193   1_655 S
C39    C54     1.413   .     S
C39    C38     1.193   1_455 S
C40    C53     1.413   .     S
C40    C42     1.193   1_545 S
C41    C75     1.445   .     A
C41    C103    1.445   .     A
C42    C51     1.413   .     S
C42    C40     1.193   1_565 S
C43    C50     1.413   .     S
C43    C44     1.193   1_556 S
C44    C49     1.413   .     S
C44    C43     1.193   1_554 S
C45    C48     1.413   1_655 S
C45    C46     1.193   1_656 S
C46    C47     1.413   .     S
C46    C45     1.193   1_454 S
C47    O45     1.283   .     A
C47    O52     1.280   .     S
C48    O2      1.280   .     A
C48    C45     1.413   1_455 S
C48    O49     1.283   .     S
C49    O3      1.283   .     S
C49    O50     1.282   .     S
C50    O4      1.283   .     S
C50    O51     1.282   .     S
C51    O5      1.283   .     A
C51    O9      1.280   1_565 S
C52    C100    1.441   .     A
C52    C76     1.435   .     A
C53    O6      1.283   .     A
C53    O10     1.280   1_545 S
C54    O11     1.283   .     A
C54    O7      1.282   1_455 S
C55    O13     1.283   .     A
C55    O8      1.282   1_655 S
C56    O14     1.278   .     A
C56    O47     1.275   .     A
C57    O15     1.279   .     A
C57    O48     1.271   .     A
C58    O16     1.271   .     A
C58    O44     1.283   .     A
C59    O46     1.280   .     A
C59    O17     1.269   .     A
C60    O18     1.265   .     A
C60    O42     1.274   .     A
C61    O43     1.274   .     A
C61    O19     1.271   .     A
C62    O40     1.270   .     A
C62    O20     1.273   .     A
C63    C118    1.539   .     S
C63    C101    1.435   .     A
C63    C77     1.426   .     A
C64    O41     1.276   .     A
C64    O21     1.272   .     A
C65    O22     1.268   .     A
C65    O38     1.272   .     A
C66    O39     1.277   .     A
C66    O24     1.268   .     A
C67    O25     1.274   .     A
C67    O36     1.266   .     A
C68    O26     1.272   .     A
C68    O37     1.271   .     A
C69    O27     1.281   .     A
C69    O33     1.276   .     A
C70    O35     1.276   .     A
C70    O28     1.278   .     A
C71    O31     1.281   .     A
C71    O29     1.276   .     A
C72    O30     1.272   .     A
C72    O32     1.278   .     A
C73    F1      1.355   .     S
C73    C109    1.391   .     A
C74    C78     1.454   .     A
C74    C106    1.438   .     A
C75    F12     1.380   .     S
C75    C110    1.397   .     A
C76    F23     1.353   .     S
C76    C111    1.398   .     A
C77    C112    1.393   .     A
C77    F27     1.353   .     S
C78    C113    1.411   .     A
C78    F28     1.367   .     S
C79    C85     1.457   .     A
C79    F29     1.368   .     S
C79    C114    1.399   .     A
C80    F30     1.355   .     S
C80    C115    1.407   .     A
C80    C96     1.437   .     A
C81    C116    1.414   .     A
C81    C107    1.437   .     A
C81    F31     1.355   .     S
C82    C118    1.438   .     A
C82    C117    1.415   .     A
C82    F32     1.355   .     S
C83    F2      1.353   .     S
C83    C119    1.407   .     A
C84    C120    1.401   .     A
C84    F3      1.375   .     S
C85    C108    1.434   .     A
C86    C121    1.398   .     A
C86    F4      1.357   .     S
C87    C122    1.392   .     A
C87    F5      1.352   .     S
C88    F6      1.353   .     S
C88    C123    1.401   .     A
C89    C124    1.392   .     A
C89    F7      1.373   .     S
C90    C125    1.397   .     A
C90    F8      1.361   .     S
C91    C126    1.394   .     A
C91    F9      1.360   .     S
C92    C127    1.395   .     A
C92    F10     1.358   .     S
C93    F11     1.352   .     S
C93    C128    1.401   .     A
C93    C118    1.428   .     A
C94    F13     1.352   .     S
C95    F14     1.366   .     S
C96    C104    1.431   .     A
C97    F15     1.362   .     S
C98    F16     1.354   .     S
C99    F17     1.356   .     S
C100   F18     1.357   .     S
C101   F19     1.358   .     S
C102   F20     1.359   .     S
C103   F21     1.359   .     S
C104   F22     1.349   .     S
C105   F24     1.351   .     S
C105   C107    1.429   .     A
C106   F25     1.360   .     S
C108   F26     1.388   .     S
C109   N1      1.448   .     S
C110   N12     1.450   .     S
C111   N23     1.449   .     S
C112   N27     1.446   .     S
C113   N28     1.439   .     S
C114   N29     1.446   .     S
C115   N30     1.440   .     S
C116   N31     1.435   .     S
C117   N32     1.436   .     S
C119   N2      1.442   .     S
C120   N3      1.448   .     S
C121   N4      1.446   .     S
C122   N5      1.439   .     S
C123   N6      1.438   .     S
C124   N7      1.431   .     S
C125   N8      1.438   .     S
C126   N9      1.443   .     S
C127   N10     1.444   .     S
C128   N11     1.433   .     S
H1     N1      1.052   .     S
H2     N28     1.052   .     S
H3     N29     1.049   .     S
H4     N29     1.050   .     S
H5     N30     1.054   .     S
H6     N30     1.053   .     S
H7     N31     1.047   .     S
H8     N31     1.047   .     S
H9     N32     1.052   .     S
H10    N32     1.052   .     S
H11    N2      1.049   .     S
H12    N1      1.053   .     S
H13    N2      1.048   .     S
H14    N3      1.051   .     S
H15    N3      1.062   .     S
H16    N4      1.086   .     S
H17    N4      1.068   .     S
H18    N5      1.045   .     S
H19    N5      1.051   .     S
H20    N6      1.048   .     S
H21    N6      1.048   .     S
H22    N7      1.050   .     S
H23    N12     1.047   .     S
H24    N7      1.050   .     S
H25    N8      1.048   .     S
H26    N8      1.047   .     S
H27    N9      1.045   .     S
H28    N9      1.049   .     S
H29    N10     1.043   .     S
H30    N10     1.050   .     S
H31    N11     1.056   .     S
H32    N11     1.056   .     S
H33    N13     1.045   .     S
H34    N12     1.048   .     S
H35    N13     1.049   .     S
H36    N14     1.050   .     S
H37    N14     1.059   .     S
H38    N15     1.044   .     S
H39    N15     1.047   .     S
H40    N16     1.058   .     S
H41    N16     1.053   .     S
H42    N17     1.045   .     S
H43    N17     1.047   .     S
H44    N18     1.054   .     S
H45    N23     1.048   .     S
H46    N18     1.048   .     S
H47    N19     1.052   .     S
H48    N19     1.051   .     S
H49    N20     1.050   .     S
H50    N20     1.044   .     S
H51    N21     1.046   .     S
H52    N21     1.045   .     S
H53    N22     1.057   .     S
H54    N22     1.054   .     S
H55    N24     1.051   .     S
H56    N23     1.053   .     S
H57    N24     1.049   .     S
H58    N25     1.047   .     S
H59    N25     1.049   .     S
H60    N26     1.051   .     S
H61    N26     1.063   .     S
H62    N27     1.053   .     S
H63    N27     1.055   .     S
H64    N28     1.044   .     S
O1     Zn8     1.939   .     S
O1     Zn1     1.949   .     S
O1     Zn4     1.953   .     S
O1     Zn12    1.945   1_455 S
O2     Zn3     1.898   .     S
O3     Zn6     1.902   .     S
O4     Zn5     1.902   .     S
O5     Zn15    1.905   .     S
O6     Zn14    1.905   .     S
O7     Zn9     1.900   .     S
O7     C54     1.282   1_655 S
O8     Zn1     1.900   .     S
O8     C55     1.282   1_455 S
O9     Zn11    1.898   .     S
O9     C51     1.280   1_545 S
O10    Zn10    1.898   .     S
O10    C53     1.280   1_565 S
O11    Zn13    1.902   .     S
O12    Zn3     1.953   .     S
O12    Zn7     1.939   .     S
O12    Zn13    1.945   .     S
O12    Zn9     1.949   1_455 S
O13    Zn12    1.902   .     S
O14    Zn4     1.954   .     S
O15    Zn3     1.954   1_655 S
O16    Zn6     1.954   1_565 S
O17    Zn5     1.954   .     S
O18    Zn8     1.956   1_655 S
O19    Zn7     1.956   .     S
O20    Zn2     1.949   .     S
O21    Zn16    1.949   1_565 S
O22    Zn7     1.954   1_655 S
O23    Zn10    1.953   1_545 S
O23    Zn2     1.949   .     S
O23    Zn6     1.945   .     S
O23    Zn14    1.939   .     S
O24    Zn8     1.954   .     S
O25    Zn5     1.953   1_565 S
O26    Zn6     1.953   .     S
O27    Zn3     1.950   .     S
O28    Zn4     1.950   1_655 S
O29    Zn16    1.956   .     S
O30    Zn2     1.956   1_565 S
O31    Zn11    1.954   .     S
O32    Zn10    1.954   .     S
O33    Zn13    1.954   .     S
O34    Zn15    1.939   1_545 S
O34    Zn5     1.945   .     S
O34    Zn16    1.949   .     S
O34    Zn11    1.953   .     S
O35    Zn12    1.954   .     S
O36    Zn15    1.956   .     S
O37    Zn14    1.956   .     S
O38    Zn9     1.949   .     S
O39    Zn1     1.949   .     S
O40    Zn14    1.954   .     S
O41    Zn15    1.954   .     S
O42    Zn12    1.953   .     S
O43    Zn13    1.953   .     S
O44    Zn10    1.950   .     S
O45    Zn8     1.905   .     S
O46    Zn11    1.950   .     S
O47    Zn1     1.956   .     S
O48    Zn9     1.956   .     S
O49    Zn7     1.905   .     S
O50    Zn2     1.900   .     S
O51    Zn16    1.900   .     S
O52    Zn4     1.898   .     S
Zn2    O30     1.956   1_545 S
Zn3    O15     1.954   1_455 S
Zn4    O28     1.950   1_455 S
Zn5    O25     1.953   1_545 S
Zn6    O16     1.954   1_545 S
Zn7    O22     1.954   1_455 S
Zn8    O18     1.956   1_455 S
Zn9    O12     1.949   1_655 S
Zn10   O23     1.953   1_565 S
Zn12   O1      1.945   1_655 S
Zn15   O34     1.939   1_565 S
Zn16   O21     1.949   1_545 S
