data_str_m1_o2_o5_pcu_sym.12
_audit_creation_date              2020-01-03
_audit_creation_method            'Materials Studio'
_symmetry_space_group_name_H-M    'P1'
_symmetry_Int_Tables_number       1
_symmetry_cell_setting            triclinic
loop_
_symmetry_equiv_pos_as_xyz
  x,y,z
_cell_length_a                    24.4550
_cell_length_b                    24.4550
_cell_length_c                    22.4408
_cell_angle_alpha                 90.0000
_cell_angle_beta                  89.9994
_cell_angle_gamma                 90.0002
loop_
_atom_site_label
_atom_site_type_symbol
_atom_site_fract_x
_atom_site_fract_y
_atom_site_fract_z
_atom_site_U_iso_or_equiv
_atom_site_adp_type
_atom_site_occupancy
C1     C     0.22876   0.27124   0.25000   0.00000  Uiso   1.00
C2     C     0.22877   0.72877   0.25000   0.00000  Uiso   1.00
C3     C     0.20191   0.63437   0.26500   0.00000  Uiso   1.00
C4     C     0.34194   0.17822   0.69811   0.00000  Uiso   1.00
C5     C     0.65803   0.82173   0.30187   0.00000  Uiso   1.00
C6     C     0.20200   0.63424   0.73559   0.00000  Uiso   1.00
C7     C     0.79804   0.36571   0.26464   0.00000  Uiso   1.00
C8     C     0.34162   0.82213   0.30204   0.00000  Uiso   1.00
C9     C     0.65804   0.17826   0.69813   0.00000  Uiso   1.00
C10    C     0.20194   0.36567   0.26483   0.00000  Uiso   1.00
C11    C     0.79801   0.63425   0.73554   0.00000  Uiso   1.00
C12    C     0.65813   0.17814   0.30192   0.00000  Uiso   1.00
C13    C     0.72877   0.77123   0.75000   0.00000  Uiso   1.00
C14    C     0.34195   0.82176   0.69811   0.00000  Uiso   1.00
C15    C     0.79801   0.63424   0.26442   0.00000  Uiso   1.00
C16    C     0.20198   0.36574   0.73549   0.00000  Uiso   1.00
C17    C     0.14767   0.35233   0.25000   0.00000  Uiso   1.00
C18    C     0.85234   0.64766   0.75000   0.00000  Uiso   1.00
C19    C     0.35234   0.85234   0.25000   0.00000  Uiso   1.00
C20    C     0.64768   0.14768   0.75000   0.00000  Uiso   1.00
C21    C     0.85234   0.64766   0.25000   0.00000  Uiso   1.00
C22    C     0.14766   0.35234   0.75000   0.00000  Uiso   1.00
C23    C     0.64767   0.14767   0.25000   0.00000  Uiso   1.00
C24    C     0.27124   0.22876   0.25000   0.00000  Uiso   1.00
C25    C     0.35232   0.85232   0.75000   0.00000  Uiso   1.00
C26    C     0.85234   0.35234   0.75000   0.00000  Uiso   1.00
C27    C     0.14767   0.64767   0.25000   0.00000  Uiso   1.00
C28    C     0.64768   0.85232   0.75000   0.00000  Uiso   1.00
C29    C     0.35233   0.14767   0.25000   0.00000  Uiso   1.00
C30    C     0.14766   0.64766   0.75000   0.00000  Uiso   1.00
C31    C     0.85234   0.35234   0.25000   0.00000  Uiso   1.00
C32    C     0.35232   0.14767   0.75000   0.00000  Uiso   1.00
C33    C     0.64768   0.85232   0.25000   0.00000  Uiso   1.00
C34    C     0.22875   0.72875   0.75000   0.00000  Uiso   1.00
C35    C     0.77125   0.27125   0.25000   0.00000  Uiso   1.00
C36    C     0.27123   0.22877   0.75000   0.00000  Uiso   1.00
C37    C     0.72877   0.77122   0.24999   0.00000  Uiso   1.00
C38    C     0.00000   0.50000   0.47332   0.00000  Uiso   1.00
C39    C     0.00000   0.50000   0.52668   0.00000  Uiso   1.00
C40    C     0.50000  -0.00000   0.47332   0.00000  Uiso   1.00
C41    C     0.77125   0.72875   0.75000   0.00000  Uiso   1.00
C42    C     0.50000  -0.00000   0.52668   0.00000  Uiso   1.00
C43    C     0.50000  -0.00000   0.97332   0.00000  Uiso   1.00
C44    C     0.50000  -0.00000   0.02668   0.00000  Uiso   1.00
C45    C     0.00000   0.50000   0.97332   0.00000  Uiso   1.00
C46    C     0.00000   0.50000   0.02668   0.00000  Uiso   1.00
C47    C     0.00000   0.50000   0.09001   0.00000  Uiso   1.00
C48    C     0.00000   0.50000   0.90999   0.00000  Uiso   1.00
C49    C     0.50000  -0.00000   0.09001   0.00000  Uiso   1.00
C50    C     0.50000  -0.00000   0.90998   0.00000  Uiso   1.00
C51    C     0.50000  -0.00000   0.59001   0.00000  Uiso   1.00
C52    C     0.27125   0.77125   0.25000   0.00000  Uiso   1.00
C53    C     0.50000  -0.00000   0.40998   0.00000  Uiso   1.00
C54    C     0.00000   0.50000   0.59002   0.00000  Uiso   1.00
C55    C     0.00000   0.50000   0.40998   0.00000  Uiso   1.00
C56    C     0.10523   0.60523   0.25000   0.00000  Uiso   1.00
C57    C     0.89478   0.39477   0.75000   0.00000  Uiso   1.00
C58    C     0.60523   0.89477   0.25000   0.00000  Uiso   1.00
C59    C     0.39477   0.10523   0.75000   0.00000  Uiso   1.00
C60    C     0.89477   0.39477   0.25000   0.00000  Uiso   1.00
C61    C     0.10523   0.60522   0.75000   0.00000  Uiso   1.00
C62    C     0.39477   0.10523   0.25000   0.00000  Uiso   1.00
C63    C     0.72877   0.22878   0.75001   0.00000  Uiso   1.00
C64    C     0.60523   0.89477   0.75000   0.00000  Uiso   1.00
C65    C     0.89478   0.60522   0.75000   0.00000  Uiso   1.00
C66    C     0.10523   0.39477   0.25000   0.00000  Uiso   1.00
C67    C     0.39477   0.89477   0.75000   0.00000  Uiso   1.00
C68    C     0.60523   0.10523   0.25000   0.00000  Uiso   1.00
C69    C     0.10523   0.39477   0.75000   0.00000  Uiso   1.00
C70    C     0.89478   0.60522   0.25000   0.00000  Uiso   1.00
C71    C     0.60523   0.10523   0.75000   0.00000  Uiso   1.00
C72    C     0.39477   0.89477   0.25000   0.00000  Uiso   1.00
C73    C     0.17459   0.25775   0.23553   0.00000  Uiso   1.00
C74    C     0.77125   0.72874   0.24999   0.00000  Uiso   1.00
C75    C     0.82549   0.74230   0.76410   0.00000  Uiso   1.00
C76    C     0.28208   0.80109   0.19790   0.00000  Uiso   1.00
C77    C     0.71831   0.19856   0.80192   0.00000  Uiso   1.00
C78    C     0.82549   0.74230   0.23592   0.00000  Uiso   1.00
C79    C     0.17452   0.25771   0.76415   0.00000  Uiso   1.00
C80    C     0.71820   0.19865   0.19803   0.00000  Uiso   1.00
C81    C     0.28170   0.80143   0.80193   0.00000  Uiso   1.00
C82    C     0.82549   0.25770   0.76408   0.00000  Uiso   1.00
C83    C     0.17463   0.74222   0.23534   0.00000  Uiso   1.00
C84    C     0.71831   0.80144   0.80192   0.00000  Uiso   1.00
C85    C     0.22875   0.27125   0.75000   0.00000  Uiso   1.00
C86    C     0.28193   0.19877   0.19798   0.00000  Uiso   1.00
C87    C     0.17450   0.74231   0.76406   0.00000  Uiso   1.00
C88    C     0.82545   0.25773   0.23571   0.00000  Uiso   1.00
C89    C     0.28172   0.19858   0.80193   0.00000  Uiso   1.00
C90    C     0.71832   0.80145   0.19808   0.00000  Uiso   1.00
C91    C     0.69856   0.78169   0.69808   0.00000  Uiso   1.00
C92    C     0.30123   0.21807   0.30202   0.00000  Uiso   1.00
C93    C     0.75769   0.32549   0.73592   0.00000  Uiso   1.00
C94    C     0.24223   0.67463   0.26465   0.00000  Uiso   1.00
C95    C     0.30142   0.21828   0.69807   0.00000  Uiso   1.00
C96    C     0.72877   0.22877   0.25000   0.00000  Uiso   1.00
C97    C     0.69855   0.78167   0.30191   0.00000  Uiso   1.00
C98    C     0.24231   0.67450   0.73594   0.00000  Uiso   1.00
C99    C     0.75773   0.32545   0.26429   0.00000  Uiso   1.00
C100   C     0.30110   0.78208   0.30209   0.00000  Uiso   1.00
C101   C     0.69856   0.21831   0.69809   0.00000  Uiso   1.00
C102   C     0.24225   0.32541   0.26447   0.00000  Uiso   1.00
C103   C     0.75770   0.67451   0.73590   0.00000  Uiso   1.00
C104   C     0.69866   0.21820   0.30197   0.00000  Uiso   1.00
C105   C     0.30143   0.78170   0.69807   0.00000  Uiso   1.00
C106   C     0.75769   0.67450   0.26406   0.00000  Uiso   1.00
C107   C     0.27123   0.77123   0.75000   0.00000  Uiso   1.00
C108   C     0.24229   0.32547   0.73585   0.00000  Uiso   1.00
C109   C     0.13433   0.29806   0.23518   0.00000  Uiso   1.00
C110   C     0.86575   0.70199   0.76446   0.00000  Uiso   1.00
C111   C     0.32213   0.84162   0.19795   0.00000  Uiso   1.00
C112   C     0.67825   0.15804   0.80187   0.00000  Uiso   1.00
C113   C     0.86575   0.70199   0.23557   0.00000  Uiso   1.00
C114   C     0.13426   0.29802   0.76451   0.00000  Uiso   1.00
C115   C     0.67815   0.15813   0.19808   0.00000  Uiso   1.00
C116   C     0.32176   0.84195   0.80189   0.00000  Uiso   1.00
C117   C     0.86575   0.29801   0.76445   0.00000  Uiso   1.00
C118   C     0.77125   0.27126   0.75001   0.00000  Uiso   1.00
C119   C     0.13437   0.70191   0.23500   0.00000  Uiso   1.00
C120   C     0.67825   0.84196   0.80187   0.00000  Uiso   1.00
C121   C     0.32198   0.15824   0.19803   0.00000  Uiso   1.00
C122   C     0.13424   0.70200   0.76441   0.00000  Uiso   1.00
C123   C     0.86571   0.29804   0.23536   0.00000  Uiso   1.00
C124   C     0.32178   0.15806   0.80189   0.00000  Uiso   1.00
C125   C     0.67826   0.84197   0.19813   0.00000  Uiso   1.00
C126   C     0.65804   0.82175   0.69812   0.00000  Uiso   1.00
C127   C     0.34176   0.17802   0.30198   0.00000  Uiso   1.00
C128   C     0.79801   0.36575   0.73556   0.00000  Uiso   1.00
F1     F     0.16055   0.20529   0.22288   0.00000  Uiso   1.00
F2     F     0.16063   0.79466   0.22248   0.00000  Uiso   1.00
F3     F     0.74621   0.79092   0.85298   0.00000  Uiso   1.00
F4     F     0.25425   0.20951   0.14683   0.00000  Uiso   1.00
F5     F     0.16040   0.79484   0.77632   0.00000  Uiso   1.00
F6     F     0.83952   0.20523   0.22324   0.00000  Uiso   1.00
F7     F     0.25385   0.20913   0.85300   0.00000  Uiso   1.00
F8     F     0.74623   0.79094   0.14702   0.00000  Uiso   1.00
F9     F     0.70909   0.75379   0.64702   0.00000  Uiso   1.00
F10    F     0.29049   0.24575   0.35317   0.00000  Uiso   1.00
F11    F     0.70517   0.33959   0.72366   0.00000  Uiso   1.00
F12    F     0.83958   0.79482   0.77639   0.00000  Uiso   1.00
F13    F     0.29466   0.66062   0.27751   0.00000  Uiso   1.00
F14    F     0.29087   0.24615   0.64700   0.00000  Uiso   1.00
F15    F     0.70906   0.75376   0.35296   0.00000  Uiso   1.00
F16    F     0.29484   0.66040   0.72367   0.00000  Uiso   1.00
F17    F     0.70524   0.33951   0.27676   0.00000  Uiso   1.00
F18    F     0.29020   0.75455   0.35330   0.00000  Uiso   1.00
F19    F     0.70908   0.24621   0.64703   0.00000  Uiso   1.00
F20    F     0.29471   0.33945   0.27713   0.00000  Uiso   1.00
F21    F     0.70518   0.66042   0.72361   0.00000  Uiso   1.00
F22    F     0.70928   0.24599   0.35307   0.00000  Uiso   1.00
F23    F     0.25455   0.79020   0.14669   0.00000  Uiso   1.00
F24    F     0.29090   0.75381   0.64700   0.00000  Uiso   1.00
F25    F     0.70517   0.66040   0.27633   0.00000  Uiso   1.00
F26    F     0.29481   0.33956   0.72350   0.00000  Uiso   1.00
F27    F     0.08209   0.28369   0.22189   0.00000  Uiso   1.00
F28    F     0.91805   0.71641   0.77738   0.00000  Uiso   1.00
F29    F     0.33233   0.86930   0.14667   0.00000  Uiso   1.00
F30    F     0.66844   0.13000   0.85300   0.00000  Uiso   1.00
F31    F     0.91806   0.71642   0.22269   0.00000  Uiso   1.00
F32    F     0.08197   0.28360   0.77749   0.00000  Uiso   1.00
F33    F     0.66822   0.13020   0.14690   0.00000  Uiso   1.00
F34    F     0.74621   0.20908   0.85298   0.00000  Uiso   1.00
F35    F     0.33159   0.86997   0.85304   0.00000  Uiso   1.00
F36    F     0.91806   0.28359   0.77734   0.00000  Uiso   1.00
F37    F     0.08216   0.71627   0.22154   0.00000  Uiso   1.00
F38    F     0.66843   0.86999   0.85301   0.00000  Uiso   1.00
F39    F     0.33204   0.13043   0.14680   0.00000  Uiso   1.00
F40    F     0.08192   0.71644   0.77726   0.00000  Uiso   1.00
F41    F     0.91798   0.28364   0.22226   0.00000  Uiso   1.00
F42    F     0.33162   0.13006   0.85303   0.00000  Uiso   1.00
F43    F     0.66845   0.87001   0.14700   0.00000  Uiso   1.00
F44    F     0.63001   0.83157   0.64699   0.00000  Uiso   1.00
F45    F     0.83959   0.79482   0.22366   0.00000  Uiso   1.00
F46    F     0.36957   0.16796   0.35320   0.00000  Uiso   1.00
F47    F     0.78359   0.41806   0.72265   0.00000  Uiso   1.00
F48    F     0.21627   0.58216   0.27846   0.00000  Uiso   1.00
F49    F     0.36995   0.16837   0.64697   0.00000  Uiso   1.00
F50    F     0.62999   0.83154   0.35300   0.00000  Uiso   1.00
F51    F     0.21644   0.58192   0.72273   0.00000  Uiso   1.00
F52    F     0.78364   0.41798   0.27774   0.00000  Uiso   1.00
F53    F     0.36930   0.83233   0.35333   0.00000  Uiso   1.00
F54    F     0.63000   0.16844   0.64700   0.00000  Uiso   1.00
F55    F     0.21631   0.41791   0.27811   0.00000  Uiso   1.00
F56    F     0.16044   0.20519   0.77650   0.00000  Uiso   1.00
F57    F     0.78359   0.58195   0.72262   0.00000  Uiso   1.00
F58    F     0.63020   0.16822   0.35309   0.00000  Uiso   1.00
F59    F     0.36997   0.83159   0.64696   0.00000  Uiso   1.00
F60    F     0.78358   0.58193   0.27730   0.00000  Uiso   1.00
F61    F     0.21640   0.41803   0.72251   0.00000  Uiso   1.00
F62    F     0.74599   0.20928   0.14693   0.00000  Uiso   1.00
F63    F     0.25381   0.79089   0.85300   0.00000  Uiso   1.00
F64    F     0.83959   0.20518   0.77635   0.00000  Uiso   1.00
O1     O     0.00000   0.50000   0.25000   0.00000  Uiso   1.00
O2     O     0.00000   0.45454   0.88202   0.00000  Uiso   1.00
O3     O     0.54546  -0.00000   0.11798   0.00000  Uiso   1.00
O4     O     0.45454  -0.00000   0.88202   0.00000  Uiso   1.00
O5     O     0.50000   0.95454   0.61798   0.00000  Uiso   1.00
O6     O     0.50000   0.04546   0.38202   0.00000  Uiso   1.00
O7     O     0.95454   0.50000   0.61798   0.00000  Uiso   1.00
O8     O     0.04546   0.50000   0.38202   0.00000  Uiso   1.00
O9     O     0.50000   0.04546   0.61798   0.00000  Uiso   1.00
O10    O     0.50000   0.95454   0.38202   0.00000  Uiso   1.00
O11    O     0.04546   0.50000   0.61798   0.00000  Uiso   1.00
O12    O     0.00000   0.50000   0.75000   0.00000  Uiso   1.00
O13    O     0.95454   0.50000   0.38202   0.00000  Uiso   1.00
O14    O     0.06399   0.60947   0.21539   0.00000  Uiso   1.00
O15    O     0.93601   0.39053   0.78461   0.00000  Uiso   1.00
O16    O     0.60947   0.93601   0.21539   0.00000  Uiso   1.00
O17    O     0.39053   0.06399   0.78461   0.00000  Uiso   1.00
O18    O     0.93601   0.39053   0.21539   0.00000  Uiso   1.00
O19    O     0.06399   0.60947   0.78461   0.00000  Uiso   1.00
O20    O     0.39053   0.06399   0.21539   0.00000  Uiso   1.00
O21    O     0.60947   0.93601   0.78461   0.00000  Uiso   1.00
O22    O     0.93601   0.60947   0.78461   0.00000  Uiso   1.00
O23    O     0.50000  -0.00000   0.25000   0.00000  Uiso   1.00
O24    O     0.06399   0.39053   0.21539   0.00000  Uiso   1.00
O25    O     0.39053   0.93601   0.78461   0.00000  Uiso   1.00
O26    O     0.60947   0.06399   0.21539   0.00000  Uiso   1.00
O27    O     0.06399   0.39053   0.78461   0.00000  Uiso   1.00
O28    O     0.93601   0.60947   0.21539   0.00000  Uiso   1.00
O29    O     0.60947   0.06399   0.78461   0.00000  Uiso   1.00
O30    O     0.39053   0.93601   0.21539   0.00000  Uiso   1.00
O31    O     0.56399   0.10947   0.71539   0.00000  Uiso   1.00
O32    O     0.43601   0.89053   0.28461   0.00000  Uiso   1.00
O33    O     0.10947   0.43601   0.71539   0.00000  Uiso   1.00
O34    O     0.50000  -0.00000   0.75000   0.00000  Uiso   1.00
O35    O     0.89053   0.56399   0.28461   0.00000  Uiso   1.00
O36    O     0.43601   0.89053   0.71539   0.00000  Uiso   1.00
O37    O     0.56399   0.10947   0.28461   0.00000  Uiso   1.00
O38    O     0.89053   0.56399   0.71539   0.00000  Uiso   1.00
O39    O     0.10947   0.43601   0.28461   0.00000  Uiso   1.00
O40    O     0.43601   0.10947   0.28461   0.00000  Uiso   1.00
O41    O     0.56399   0.89053   0.71539   0.00000  Uiso   1.00
O42    O     0.89053   0.43601   0.28461   0.00000  Uiso   1.00
O43    O     0.10947   0.56399   0.71539   0.00000  Uiso   1.00
O44    O     0.56399   0.89053   0.28461   0.00000  Uiso   1.00
O45    O     0.00000   0.45454   0.11798   0.00000  Uiso   1.00
O46    O     0.43601   0.10947   0.71539   0.00000  Uiso   1.00
O47    O     0.10947   0.56399   0.28461   0.00000  Uiso   1.00
O48    O     0.89053   0.43601   0.71539   0.00000  Uiso   1.00
O49    O     0.00000   0.54546   0.88202   0.00000  Uiso   1.00
O50    O     0.45454  -0.00000   0.11798   0.00000  Uiso   1.00
O51    O     0.54546  -0.00000   0.88202   0.00000  Uiso   1.00
O52    O     0.00000   0.54546   0.11798   0.00000  Uiso   1.00
Zn1    Zn    0.06497   0.50000   0.29947   0.00000  Uiso   1.00
Zn2    Zn    0.43503  -0.00000   0.20053   0.00000  Uiso   1.00
Zn3    Zn    0.00000   0.43503   0.79947   0.00000  Uiso   1.00
Zn4    Zn    0.00000   0.56497   0.20053   0.00000  Uiso   1.00
Zn5    Zn    0.43503  -0.00000   0.79947   0.00000  Uiso   1.00
Zn6    Zn    0.56497  -0.00000   0.20053   0.00000  Uiso   1.00
Zn7    Zn    0.00000   0.56497   0.79947   0.00000  Uiso   1.00
Zn8    Zn    0.00000   0.43503   0.20053   0.00000  Uiso   1.00
Zn9    Zn    0.93503   0.50000   0.70053   0.00000  Uiso   1.00
Zn10   Zn    0.50000   0.93503   0.29947   0.00000  Uiso   1.00
Zn11   Zn    0.50000   0.06497   0.70053   0.00000  Uiso   1.00
Zn12   Zn    0.93503   0.50000   0.29947   0.00000  Uiso   1.00
Zn13   Zn    0.06497   0.50000   0.70053   0.00000  Uiso   1.00
Zn14   Zn    0.50000   0.06497   0.29947   0.00000  Uiso   1.00
Zn15   Zn    0.50000   0.93503   0.70053   0.00000  Uiso   1.00
Zn16   Zn    0.56497  -0.00000   0.79947   0.00000  Uiso   1.00
loop_
_geom_bond_atom_site_label_1
_geom_bond_atom_site_label_2
_geom_bond_distance
_geom_bond_site_symmetry_2
_ccdc_geom_bond_type
C1     C73     1.403   .     A
C1     C24     1.469   .     S
C1     C102    1.403   .     A
C2     C83     1.403   .     A
C2     C94     1.403   .     A
C2     C52     1.469   .     S
C3     C27     1.407   .     A
C3     C94     1.393   .     A
C3     F48     1.358   .     S
C4     F49     1.358   .     S
C4     C95     1.393   .     A
C4     C32     1.407   .     A
C5     C33     1.407   .     A
C5     C97     1.393   .     A
C5     F50     1.358   .     S
C6     F51     1.358   .     S
C6     C98     1.393   .     A
C6     C30     1.407   .     A
C7     C99     1.393   .     A
C7     C31     1.406   .     A
C7     F52     1.358   .     S
C8     C19     1.407   .     A
C8     C100    1.393   .     A
C8     F53     1.358   .     S
C9     F54     1.358   .     S
C9     C20     1.407   .     A
C9     C101    1.393   .     A
C10    C17     1.407   .     A
C10    F55     1.358   .     S
C10    C102    1.393   .     A
C11    C18     1.406   .     A
C11    C103    1.393   .     A
C11    F57     1.358   .     S
C12    C23     1.407   .     A
C12    C104    1.393   .     A
C12    F58     1.358   .     S
C13    C41     1.469   .     S
C13    C91     1.403   .     A
C13    C84     1.403   .     A
C14    C105    1.393   .     A
C14    F59     1.358   .     S
C14    C25     1.407   .     A
C15    C106    1.393   .     A
C15    F60     1.358   .     S
C15    C21     1.406   .     A
C16    C22     1.406   .     A
C16    F61     1.358   .     S
C16    C108    1.393   .     A
C17    C66     1.468   .     S
C17    C109    1.407   .     A
C18    C65     1.468   .     S
C18    C110    1.406   .     A
C19    C72     1.468   .     S
C19    C111    1.407   .     A
C20    C112    1.407   .     A
C20    C71     1.468   .     S
C21    C113    1.406   .     A
C21    C70     1.468   .     S
C22    C114    1.406   .     A
C22    C69     1.468   .     S
C23    C68     1.468   .     S
C23    C115    1.407   .     A
C24    C92     1.403   .     A
C24    C86     1.403   .     A
C25    C116    1.407   .     A
C25    C67     1.468   .     S
C26    C117    1.406   .     A
C26    C128    1.406   .     A
C26    C57     1.468   .     S
C27    C56     1.468   .     S
C27    C119    1.407   .     A
C28    C126    1.407   .     A
C28    C120    1.407   .     A
C28    C64     1.468   .     S
C29    C121    1.407   .     A
C29    C62     1.468   .     S
C29    C127    1.407   .     A
C30    C122    1.407   .     A
C30    C61     1.468   .     S
C31    C123    1.406   .     A
C31    C60     1.468   .     S
C32    C124    1.407   .     A
C32    C59     1.468   .     S
C33    C58     1.468   .     S
C33    C125    1.407   .     A
C34    C107    1.469   .     S
C34    C98     1.403   .     A
C34    C87     1.403   .     A
C35    C96     1.469   .     S
C35    C99     1.403   .     A
C35    C88     1.403   .     A
C36    C89     1.403   .     A
C36    C85     1.469   .     S
C36    C95     1.403   .     A
C37    C74     1.469   .     S
C37    C97     1.403   .     A
C37    C90     1.403   .     A
C38    C55     1.421   .     S
C38    C39     1.198   .     S
C39    C54     1.421   .     S
C40    C42     1.198   .     T
C40    C53     1.421   .     S
C41    C75     1.403   .     A
C41    C103    1.403   .     A
C42    C51     1.421   .     S
C43    C50     1.421   .     S
C43    C44     1.198   1_556 S
C44    C49     1.421   .     S
C44    C43     1.198   1_554 S
C45    C48     1.421   .     S
C45    C46     1.198   1_556 S
C46    C47     1.421   .     S
C46    C45     1.198   1_554 S
C47    O45     1.277   .     A
C47    O52     1.277   .     A
C48    O2      1.277   .     A
C48    O49     1.277   .     S
C49    O3      1.277   .     S
C49    O50     1.277   .     S
C50    O4      1.277   .     S
C50    O51     1.277   .     S
C51    O5      1.277   1_545 A
C51    O9      1.277   .     S
C52    C100    1.403   .     A
C52    C76     1.403   .     A
C53    O10     1.277   1_545 A
C53    O6      1.277   .     S
C54    O11     1.277   .     A
C54    O7      1.277   1_455 S
C55    O13     1.277   1_455 A
C55    O8      1.277   .     S
C56    O47     1.277   .     A
C56    O14     1.277   .     A
C57    O15     1.277   .     A
C57    O48     1.277   .     A
C58    O44     1.277   .     A
C58    O16     1.277   .     A
C59    O46     1.277   .     A
C59    O17     1.277   .     A
C60    O42     1.277   .     A
C60    O18     1.277   .     A
C61    O19     1.277   .     A
C61    O43     1.277   .     A
C62    O40     1.277   .     A
C62    O20     1.277   .     A
C63    C101    1.403   .     A
C63    C118    1.469   .     S
C63    C77     1.403   .     A
C64    O21     1.277   .     A
C64    O41     1.277   .     A
C65    O38     1.277   .     A
C65    O22     1.277   .     A
C66    O39     1.277   .     A
C66    O24     1.277   .     A
C67    O25     1.277   .     A
C67    O36     1.277   .     A
C68    O26     1.277   .     A
C68    O37     1.277   .     A
C69    O33     1.277   .     A
C69    O27     1.277   .     A
C70    O35     1.277   .     A
C70    O28     1.277   .     A
C71    O29     1.277   .     A
C71    O31     1.277   .     A
C72    O32     1.277   .     A
C72    O30     1.277   .     A
C73    F1      1.358   .     S
C73    C109    1.393   .     A
C74    C106    1.403   .     A
C74    C78     1.403   .     A
C75    F12     1.358   .     S
C75    C110    1.393   .     A
C76    F23     1.358   .     S
C76    C111    1.393   .     A
C77    C112    1.393   .     A
C77    F34     1.358   .     S
C78    C113    1.393   .     A
C78    F45     1.358   .     S
C79    F56     1.358   .     S
C79    C85     1.403   .     A
C79    C114    1.393   .     A
C80    C96     1.403   .     A
C80    C115    1.393   .     A
C80    F62     1.358   .     S
C81    C107    1.403   .     A
C81    F63     1.358   .     S
C81    C116    1.393   .     A
C82    F64     1.358   .     S
C82    C118    1.403   .     A
C82    C117    1.393   .     A
C83    C119    1.393   .     A
C83    F2      1.358   .     S
C84    C120    1.393   .     A
C84    F3      1.358   .     S
C85    C108    1.403   .     A
C86    C121    1.393   .     A
C86    F4      1.358   .     S
C87    F5      1.358   .     S
C87    C122    1.393   .     A
C88    C123    1.393   .     A
C88    F6      1.358   .     S
C89    F7      1.358   .     S
C89    C124    1.393   .     A
C90    F8      1.358   .     S
C90    C125    1.393   .     A
C91    C126    1.393   .     A
C91    F9      1.358   .     S
C92    F10     1.358   .     S
C92    C127    1.393   .     A
C93    F11     1.358   .     S
C93    C118    1.403   .     A
C93    C128    1.393   .     A
C94    F13     1.358   .     S
C95    F14     1.358   .     S
C96    C104    1.403   .     A
C97    F15     1.358   .     S
C98    F16     1.358   .     S
C99    F17     1.358   .     S
C100   F18     1.358   .     S
C101   F19     1.358   .     S
C102   F20     1.358   .     S
C103   F21     1.358   .     S
C104   F22     1.358   .     S
C105   C107    1.403   .     A
C105   F24     1.358   .     S
C106   F25     1.358   .     S
C108   F26     1.358   .     S
C109   F27     1.358   .     S
C110   F28     1.358   .     S
C111   F29     1.358   .     S
C112   F30     1.358   .     S
C113   F31     1.358   .     S
C114   F32     1.358   .     S
C115   F33     1.358   .     S
C116   F35     1.358   .     S
C117   F36     1.358   .     S
C119   F37     1.358   .     S
C120   F38     1.358   .     S
C121   F39     1.358   .     S
C122   F40     1.358   .     S
C123   F41     1.358   .     S
C124   F42     1.358   .     S
C125   F43     1.358   .     S
C126   F44     1.358   .     S
C127   F46     1.358   .     S
C128   F47     1.358   .     S
O1     Zn8     1.938   .     S
O1     Zn4     1.938   .     S
O1     Zn1     1.938   .     S
O1     Zn12    1.938   1_455 S
O2     Zn3     1.913   .     S
O3     Zn6     1.913   .     S
O4     Zn5     1.913   .     S
O5     C51     1.277   1_565 A
O5     Zn15    1.913   .     S
O6     Zn14    1.913   .     S
O7     Zn9     1.913   .     S
O7     C54     1.277   1_655 S
O8     Zn1     1.913   .     S
O9     Zn11    1.913   .     S
O10    C53     1.277   1_565 A
O10    Zn10    1.913   .     S
O11    Zn13    1.913   .     S
O12    Zn7     1.938   .     S
O12    Zn3     1.938   .     S
O12    Zn13    1.938   .     S
O12    Zn9     1.938   1_455 S
O13    C55     1.277   1_655 A
O13    Zn12    1.913   .     S
O14    Zn4     1.935   .     S
O15    Zn3     1.935   1_655 S
O16    Zn6     1.935   1_565 S
O17    Zn5     1.935   .     S
O18    Zn8     1.935   1_655 S
O19    Zn7     1.935   .     S
O20    Zn2     1.935   .     S
O21    Zn16    1.935   1_565 S
O22    Zn7     1.935   1_655 S
O23    Zn14    1.938   .     S
O23    Zn2     1.938   .     S
O23    Zn6     1.938   .     S
O23    Zn10    1.938   1_545 S
O24    Zn8     1.935   .     S
O25    Zn5     1.935   1_565 S
O26    Zn6     1.935   .     S
O27    Zn3     1.935   .     S
O28    Zn4     1.935   1_655 S
O29    Zn16    1.935   .     S
O30    Zn2     1.935   1_565 S
O31    Zn11    1.935   .     S
O32    Zn10    1.935   .     S
O33    Zn13    1.935   .     S
O34    Zn15    1.938   1_545 S
O34    Zn5     1.938   .     S
O34    Zn11    1.938   .     S
O34    Zn16    1.938   .     S
O35    Zn12    1.935   .     S
O36    Zn15    1.935   .     S
O37    Zn14    1.935   .     S
O38    Zn9     1.935   .     S
O39    Zn1     1.935   .     S
O40    Zn14    1.935   .     S
O41    Zn15    1.935   .     S
O42    Zn12    1.935   .     S
O43    Zn13    1.935   .     S
O44    Zn10    1.935   .     S
O45    Zn8     1.913   .     S
O46    Zn11    1.935   .     S
O47    Zn1     1.935   .     S
O48    Zn9     1.935   .     S
O49    Zn7     1.913   .     S
O50    Zn2     1.913   .     S
O51    Zn16    1.913   .     S
O52    Zn4     1.913   .     S
Zn2    O30     1.935   1_545 S
Zn3    O15     1.935   1_455 S
Zn4    O28     1.935   1_455 S
Zn5    O25     1.935   1_545 S
Zn6    O16     1.935   1_545 S
Zn7    O22     1.935   1_455 S
Zn8    O18     1.935   1_455 S
Zn9    O12     1.938   1_655 S
Zn10   O23     1.938   1_565 S
Zn12   O1      1.938   1_655 S
Zn15   O34     1.938   1_565 S
Zn16   O21     1.935   1_545 S
